@<TRIPOS>MOLECULE
*****
 35 38 0 0 0
SMALL
GASTEIGER

@<TRIPOS>ATOM
      1 C          61.9049   86.1089    8.6779 C.ar    1  UNL1        0.1472
      2 N          61.7237   87.2927    9.5811 N.ar    1  UNL1       -0.1976
      3 C          60.5132   88.1670    9.4379 C.ar    1  UNL1        0.2229
      4 N          59.4840   87.8574    8.3916 N.ar    1  UNL1       -0.2110
      5 C          59.6652   86.6736    7.4884 C.ar    1  UNL1        0.1160
      6 C          60.8757   85.7994    7.6315 C.ar    1  UNL1        0.1085
      7 CL         61.0569   84.6156    6.7283 Cl      1  UNL1       -0.0777
      8 N          63.1154   85.2347    8.8210 N.pl3   1  UNL1       -0.2971
      9 H          63.7809   85.1930    8.0968 H       1  UNL1        0.1536
     10 C          63.1331   84.1866   12.6487 C.ar    1  UNL1        0.0515
     11 C          63.7047   82.8026   12.5610 C.ar    1  UNL1        0.0148
     12 C          64.0798   82.2292   11.2266 C.ar    1  UNL1        0.0025
     13 C          63.8834   83.0399    9.9800 C.ar    1  UNL1        0.0147
     14 C          63.3118   84.4239   10.0677 C.ar    1  UNL1        0.0506
     15 C          62.9367   84.9973   11.4021 C.ar    1  UNL1        0.0293
     16 C          63.4528   85.7701   16.2737 C.3     1  UNL1        0.0949
     17 C          63.8280   85.1968   14.9393 C.2     1  UNL1        0.2266
     18 O          65.2731   85.0603   14.5611 O.2     1  UNL1       -0.2748
     19 N          62.7580   84.7599   13.9831 N.am    1  UNL1       -0.2839
     20 H          61.8095   84.8495   14.2313 H       1  UNL1        0.1549
     21 N          60.3319   89.3507   10.3412 N.pl3   1  UNL1       -0.2679
     22 H          59.4388   89.7479   10.4589 H       1  UNL1        0.1565
     23 C          61.5114   89.9294   11.0650 C.ar    1  UNL1        0.1344
     24 C          62.4977   90.7857   10.3274 C.ar    1  UNL1        0.0358
     25 C          63.6772   91.3644   11.0512 C.ar    1  UNL1        0.0190
     26 C          63.8705   91.0868   12.5126 C.ar    1  UNL1        0.0675
     27 C          62.8841   90.2305   13.2502 C.ar    1  UNL1        0.1147
     28 N          61.7046   89.6518   12.5263 N.ar    1  UNL1       -0.2277
     29 N          65.0499   91.6654   13.2364 N.pl3   1  UNL1       -0.3034
     30 C          65.6802   92.9359   12.7479 C.3     1  UNL1        0.1082
     31 C          66.8597   93.5146   13.4717 C.3     1  UNL1        0.0938
     32 N          67.4089   92.8228   14.6840 N.3     1  UNL1       -0.2686
     33 C          68.5884   93.4015   15.4078 C.3     1  UNL1        0.0897
     34 C          66.7786   91.5523   15.1726 C.3     1  UNL1        0.0938
     35 C          65.5991   90.9737   14.4487 C.3     1  UNL1        0.1082
@<TRIPOS>BOND
     1    16    17    1
     2    17    18    2
     3    17    19   am
     4    19    10    1
     5    10    11   ar
     6    11    12   ar
     7    12    13   ar
     8    13    14   ar
     9    14     8    1
    10     8     1    1
    11     1     2   ar
    12     2     3   ar
    13     3    21    1
    14    21    23    1
    15    23    24   ar
    16    24    25   ar
    17    25    26   ar
    18    26    29    1
    19    29    30    1
    20    30    31    1
    21    31    32    1
    22    32    33    1
    23    32    34    1
    24    34    35    1
    25    26    27   ar
    26    27    28   ar
    27     3     4   ar
    28     4     5   ar
    29     5     6   ar
    30     6     7    1
    31    14    15   ar
    32    15    10   ar
    33     6     1   ar
    34    28    23   ar
    35    35    29    1
    36    19    20    1
    37     8     9    1
    38    21    22    1
@<TRIPOS>MOLECULE
*****
 35 38 0 0 0
SMALL
GASTEIGER

@<TRIPOS>ATOM
      1 C          64.0155   86.3070   15.3178 C.ar    1  UNL1        0.1472
      2 N          64.0692   87.8058   15.3454 N.ar    1  UNL1       -0.1976
      3 C          63.2814   88.5657   16.3711 C.ar    1  UNL1        0.2229
      4 N          62.4399   87.8269   17.3691 N.ar    1  UNL1       -0.2110
      5 C          62.3863   86.3281   17.3415 C.ar    1  UNL1        0.1160
      6 C          63.1740   85.5682   16.3159 C.ar    1  UNL1        0.1085
      7 CL         63.1204   84.0694   16.2883 Cl      1  UNL1       -0.0777
      8 N          64.8033   85.5471   14.2922 N.pl3   1  UNL1       -0.2971
      9 H          65.7831   85.4883   14.3685 H       1  UNL1        0.1536
     10 C          62.3379   84.9458   11.2410 C.ar    1  UNL1        0.0515
     11 C          62.6882   83.5360   10.8671 C.ar    1  UNL1        0.0148
     12 C          63.7436   82.7966   11.6349 C.ar    1  UNL1        0.0025
     13 C          64.4486   83.4669   12.7766 C.ar    1  UNL1        0.0147
     14 C          64.0983   84.8767   13.1505 C.ar    1  UNL1        0.0506
     15 C          63.0430   85.6161   12.3827 C.ar    1  UNL1        0.0293
     16 C          60.4872   86.8473    8.2898 C.3     1  UNL1        0.0949
     17 C          61.5426   86.1078    9.0576 C.2     1  UNL1        0.2266
     18 O          62.8579   85.7911    8.4099 O.2     1  UNL1       -0.2748
     19 N          61.2826   85.6852   10.4732 N.am    1  UNL1       -0.2839
     20 H          60.4193   85.8931   10.8983 H       1  UNL1        0.1549
     21 N          63.3350   90.0645   16.3987 N.pl3   1  UNL1       -0.2679
     22 H          62.9393   90.5574   17.1535 H       1  UNL1        0.1565
     23 C          63.9916   90.8123   15.2763 C.ar    1  UNL1        0.1344
     24 C          63.5272   90.6061   13.8651 C.ar    1  UNL1        0.0358
     25 C          64.1837   91.3539   12.7426 C.ar    1  UNL1        0.0190
     26 C          65.3047   92.3078   13.0315 C.ar    1  UNL1        0.0675
     27 C          65.7691   92.5140   14.4429 C.ar    1  UNL1        0.1147
     28 N          65.1126   91.7662   15.5653 N.ar    1  UNL1       -0.2277
     29 N          65.9612   93.0556   11.9092 N.pl3   1  UNL1       -0.3034
     30 C          65.9710   94.5556   11.9119 C.3     1  UNL1        0.1082
     31 C          66.6275   95.3034   10.7895 C.3     1  UNL1        0.0938
     32 N          67.2743   94.5513    9.6644 N.3     1  UNL1       -0.2686
     33 C          67.9309   95.2990    8.5421 C.3     1  UNL1        0.0897
     34 C          67.2646   93.0512    9.6617 C.3     1  UNL1        0.0938
     35 C          66.6080   92.3035   10.7841 C.3     1  UNL1        0.1082
@<TRIPOS>BOND
     1    16    17    1
     2    17    18    2
     3    17    19   am
     4    19    10    1
     5    10    11   ar
     6    11    12   ar
     7    12    13   ar
     8    13    14   ar
     9    14     8    1
    10     8     1    1
    11     1     2   ar
    12     2     3   ar
    13     3    21    1
    14    21    23    1
    15    23    24   ar
    16    24    25   ar
    17    25    26   ar
    18    26    29    1
    19    29    30    1
    20    30    31    1
    21    31    32    1
    22    32    33    1
    23    32    34    1
    24    34    35    1
    25    26    27   ar
    26    27    28   ar
    27     3     4   ar
    28     4     5   ar
    29     5     6   ar
    30     6     7    1
    31    14    15   ar
    32    15    10   ar
    33     6     1   ar
    34    28    23   ar
    35    35    29    1
    36    19    20    1
    37     8     9    1
    38    21    22    1
@<TRIPOS>MOLECULE
*****
 35 38 0 0 0
SMALL
GASTEIGER

@<TRIPOS>ATOM
      1 C          63.3999   85.4662   13.4545 C.ar    1  UNL1        0.1472
      2 N          63.2881   86.9033   13.8698 N.ar    1  UNL1       -0.1976
      3 C          64.3234   87.5058   14.7727 C.ar    1  UNL1        0.2229
      4 N          65.4704   86.6713   15.2603 N.ar    1  UNL1       -0.2110
      5 C          65.5823   85.2343   14.8451 C.ar    1  UNL1        0.1160
      6 C          64.5471   84.6317   13.9422 C.ar    1  UNL1        0.1085
      7 CL         64.6589   83.1947   13.5269 Cl      1  UNL1       -0.0777
      8 N          62.3647   84.8637   12.5516 N.pl3   1  UNL1       -0.2971
      9 H          61.6710   84.2725   12.9238 H       1  UNL1        0.1536
     10 C          61.6410   86.6312    9.0728 C.ar    1  UNL1        0.0515
     11 C          62.4297   85.7585    8.1420 C.ar    1  UNL1        0.0148
     12 C          63.1967   84.5876    8.6810 C.ar    1  UNL1        0.0025
     13 C          63.1750   84.2893   10.1509 C.ar    1  UNL1        0.0147
     14 C          62.3864   85.1620   11.0817 C.ar    1  UNL1        0.0506
     15 C          61.6194   86.3329   10.5426 C.ar    1  UNL1        0.0293
     16 C          58.8943   88.7467    7.1415 C.3     1  UNL1        0.0949
     17 C          59.6613   87.5758    7.6805 C.2     1  UNL1        0.2266
     18 O          59.2155   86.1784    7.3664 O.2     1  UNL1       -0.2748
     19 N          60.8740   87.8021    8.5337 N.am    1  UNL1       -0.2839
     20 H          61.1666   88.7193    8.7399 H       1  UNL1        0.1549
     21 N          64.2116   88.9428   15.1879 N.pl3   1  UNL1       -0.2679
     22 H          63.8274   89.1734   16.0646 H       1  UNL1        0.1565
     23 C          64.6850   90.0285   14.2676 C.ar    1  UNL1        0.1344
     24 C          63.8948   90.3673   13.0385 C.ar    1  UNL1        0.0358
     25 C          64.3683   91.4530   12.1181 C.ar    1  UNL1        0.0190
     26 C          65.6320   92.1999   12.4268 C.ar    1  UNL1        0.0675
     27 C          66.4222   91.8610   13.6560 C.ar    1  UNL1        0.1147
     28 N          65.9487   90.7753   14.5763 N.ar    1  UNL1       -0.2277
     29 N          66.1055   93.2855   11.5064 N.pl3   1  UNL1       -0.3034
     30 C          66.6501   92.9368   10.1530 C.3     1  UNL1        0.1082
     31 C          67.1236   94.0225    9.2326 C.3     1  UNL1        0.0938
     32 N          67.0525   95.4569    9.6657 N.3     1  UNL1       -0.2686
     33 C          67.5260   96.5425    8.7453 C.3     1  UNL1        0.0897
     34 C          66.5078   95.8056   11.0192 C.3     1  UNL1        0.0938
     35 C          66.0344   94.7199   11.9395 C.3     1  UNL1        0.1082
@<TRIPOS>BOND
     1    16    17    1
     2    17    18    2
     3    17    19   am
     4    19    10    1
     5    10    11   ar
     6    11    12   ar
     7    12    13   ar
     8    13    14   ar
     9    14     8    1
    10     8     1    1
    11     1     2   ar
    12     2     3   ar
    13     3    21    1
    14    21    23    1
    15    23    24   ar
    16    24    25   ar
    17    25    26   ar
    18    26    29    1
    19    29    30    1
    20    30    31    1
    21    31    32    1
    22    32    33    1
    23    32    34    1
    24    34    35    1
    25    26    27   ar
    26    27    28   ar
    27     3     4   ar
    28     4     5   ar
    29     5     6   ar
    30     6     7    1
    31    14    15   ar
    32    15    10   ar
    33     6     1   ar
    34    28    23   ar
    35    35    29    1
    36    19    20    1
    37     8     9    1
    38    21    22    1
@<TRIPOS>MOLECULE
*****
 35 38 0 0 0
SMALL
GASTEIGER

@<TRIPOS>ATOM
      1 C          63.4091   85.2457   13.1094 C.ar    1  UNL1        0.1472
      2 N          63.2601   86.6581   13.5921 N.ar    1  UNL1       -0.1976
      3 C          64.2231   87.2117   14.6002 C.ar    1  UNL1        0.2229
      4 N          65.3351   86.3530   15.1256 N.ar    1  UNL1       -0.2110
      5 C          65.4841   84.9406   14.6429 C.ar    1  UNL1        0.1160
      6 C          64.5212   84.3870   13.6349 C.ar    1  UNL1        0.1085
      7 CL         64.6702   82.9746   13.1522 Cl      1  UNL1       -0.0777
      8 N          62.4462   84.6921   12.1014 N.pl3   1  UNL1       -0.2971
      9 H          62.0919   83.7798   12.2084 H       1  UNL1        0.1536
     10 C          60.6766   87.5290    9.9635 C.ar    1  UNL1        0.0515
     11 C          61.1769   87.2010    8.5880 C.ar    1  UNL1        0.0148
     12 C          62.1003   86.0367    8.3836 C.ar    1  UNL1        0.0025
     13 C          62.5234   85.2004    9.5547 C.ar    1  UNL1        0.0147
     14 C          62.0231   85.5284   10.9302 C.ar    1  UNL1        0.0506
     15 C          61.0997   86.6927   11.1346 C.ar    1  UNL1        0.0293
     16 C          59.0243   90.7721   11.5452 C.3     1  UNL1        0.0949
     17 C          59.9477   89.6078   11.3408 C.2     1  UNL1        0.2266
     18 O          61.0656   89.3581   12.3094 O.2     1  UNL1       -0.2748
     19 N          59.7532   88.6933   10.1679 N.am    1  UNL1       -0.2839
     20 H          59.0196   88.8572    9.5322 H       1  UNL1        0.1549
     21 N          64.0741   88.6241   15.0829 N.pl3   1  UNL1       -0.2679
     22 H          63.6640   88.8040   15.9596 H       1  UNL1        0.1565
     23 C          64.5499   89.7624   14.2297 C.ar    1  UNL1        0.1344
     24 C          65.7522   90.5581   14.6434 C.ar    1  UNL1        0.0358
     25 C          66.2280   91.6965   13.7902 C.ar    1  UNL1        0.0190
     26 C          65.5015   92.0390   12.5234 C.ar    1  UNL1        0.0675
     27 C          64.2991   91.2432   12.1098 C.ar    1  UNL1        0.1147
     28 N          63.8233   90.1050   12.9629 N.ar    1  UNL1       -0.2277
     29 N          65.9773   93.1773   11.6703 N.pl3   1  UNL1       -0.3034
     30 C          66.0193   94.5680   12.2307 C.3     1  UNL1        0.1082
     31 C          66.4951   95.7064   11.3775 C.3     1  UNL1        0.0938
     32 N          66.9289   95.4540    9.9640 N.3     1  UNL1       -0.2686
     33 C          67.4047   96.5923    9.1109 C.3     1  UNL1        0.0897
     34 C          66.8869   94.0632    9.4036 C.3     1  UNL1        0.0938
     35 C          66.4111   92.9249   10.2568 C.3     1  UNL1        0.1082
@<TRIPOS>BOND
     1    16    17    1
     2    17    18    2
     3    17    19   am
     4    19    10    1
     5    10    11   ar
     6    11    12   ar
     7    12    13   ar
     8    13    14   ar
     9    14     8    1
    10     8     1    1
    11     1     2   ar
    12     2     3   ar
    13     3    21    1
    14    21    23    1
    15    23    24   ar
    16    24    25   ar
    17    25    26   ar
    18    26    29    1
    19    29    30    1
    20    30    31    1
    21    31    32    1
    22    32    33    1
    23    32    34    1
    24    34    35    1
    25    26    27   ar
    26    27    28   ar
    27     3     4   ar
    28     4     5   ar
    29     5     6   ar
    30     6     7    1
    31    14    15   ar
    32    15    10   ar
    33     6     1   ar
    34    28    23   ar
    35    35    29    1
    36    19    20    1
    37     8     9    1
    38    21    22    1
@<TRIPOS>MOLECULE
*****
 35 38 0 0 0
SMALL
GASTEIGER

@<TRIPOS>ATOM
      1 C          61.7055   86.4456    8.9193 C.ar    1  UNL1        0.1472
      2 N          61.7083   87.7478    9.6638 N.ar    1  UNL1       -0.1976
      3 C          60.6758   88.7910    9.3541 C.ar    1  UNL1        0.2229
      4 N          59.6406   88.5320    8.3000 N.ar    1  UNL1       -0.2110
      5 C          59.6378   87.2298    7.5555 C.ar    1  UNL1        0.1160
      6 C          60.6702   86.1866    7.8651 C.ar    1  UNL1        0.1085
      7 CL         60.6674   84.8844    7.1206 Cl      1  UNL1       -0.0777
      8 N          62.7379   85.4025    9.2289 N.pl3   1  UNL1       -0.2971
      9 H          63.3216   85.0601    8.5138 H       1  UNL1        0.1536
     10 C          63.1655   82.8854   12.2673 C.ar    1  UNL1        0.0515
     11 C          63.1672   83.8377   13.4262 C.ar    1  UNL1        0.0148
     12 C          63.0258   85.3116   13.1860 C.ar    1  UNL1        0.0025
     13 C          62.8827   85.8332   11.7870 C.ar    1  UNL1        0.0147
     14 C          62.8810   84.8809   10.6281 C.ar    1  UNL1        0.0506
     15 C          63.0224   83.4070   10.8682 C.ar    1  UNL1        0.0293
     16 C          62.4587   79.2213   13.6181 C.3     1  UNL1        0.0949
     17 C          62.3174   80.6952   13.3779 C.2     1  UNL1        0.2266
     18 O          61.1865   81.4527   14.0083 O.2     1  UNL1       -0.2748
     19 N          63.3068   81.4115   12.5074 N.am    1  UNL1       -0.2839
     20 H          64.0490   80.9143   12.0937 H       1  UNL1        0.1549
     21 N          60.6787   90.0932   10.0986 N.pl3   1  UNL1       -0.2679
     22 H          59.9064   90.7002   10.0316 H       1  UNL1        0.1565
     23 C          61.8580   90.4707   10.9451 C.ar    1  UNL1        0.1344
     24 C          62.9675   91.2940   10.3610 C.ar    1  UNL1        0.0358
     25 C          64.1470   91.6715   11.2075 C.ar    1  UNL1        0.0190
     26 C          64.2169   91.2256   12.6380 C.ar    1  UNL1        0.0675
     27 C          63.1073   90.4022   13.2220 C.ar    1  UNL1        0.1147
     28 N          61.9279   90.0247   12.3755 N.ar    1  UNL1       -0.2277
     29 N          65.3963   91.6030   13.4845 N.pl3   1  UNL1       -0.3034
     30 C          66.7445   91.7861   12.8532 C.3     1  UNL1        0.1082
     31 C          67.9240   92.1636   13.6997 C.3     1  UNL1        0.0938
     32 N          67.7551   92.3579   15.1774 N.3     1  UNL1       -0.2686
     33 C          68.9345   92.7353   16.0239 C.3     1  UNL1        0.0897
     34 C          66.4067   92.1747   15.8087 C.3     1  UNL1        0.0938
     35 C          65.2274   91.7973   14.9622 C.3     1  UNL1        0.1082
@<TRIPOS>BOND
     1    16    17    1
     2    17    18    2
     3    17    19   am
     4    19    10    1
     5    10    11   ar
     6    11    12   ar
     7    12    13   ar
     8    13    14   ar
     9    14     8    1
    10     8     1    1
    11     1     2   ar
    12     2     3   ar
    13     3    21    1
    14    21    23    1
    15    23    24   ar
    16    24    25   ar
    17    25    26   ar
    18    26    29    1
    19    29    30    1
    20    30    31    1
    21    31    32    1
    22    32    33    1
    23    32    34    1
    24    34    35    1
    25    26    27   ar
    26    27    28   ar
    27     3     4   ar
    28     4     5   ar
    29     5     6   ar
    30     6     7    1
    31    14    15   ar
    32    15    10   ar
    33     6     1   ar
    34    28    23   ar
    35    35    29    1
    36    19    20    1
    37     8     9    1
    38    21    22    1
@<TRIPOS>MOLECULE
*****
 35 38 0 0 0
SMALL
GASTEIGER

@<TRIPOS>ATOM
      1 C          61.7283   86.1813    9.9526 C.ar    1  UNL1        0.1472
      2 N          61.6965   87.0592   11.1684 N.ar    1  UNL1       -0.1976
      3 C          60.9971   88.3853   11.1178 C.ar    1  UNL1        0.2229
      4 N          60.3296   88.8334    9.8515 N.ar    1  UNL1       -0.2110
      5 C          60.3614   87.9554    8.6357 C.ar    1  UNL1        0.1160
      6 C          61.0607   86.6294    8.6862 C.ar    1  UNL1        0.1085
      7 CL         61.0925   85.7514    7.4704 Cl      1  UNL1       -0.0777
      8 N          62.4276   84.8553   10.0031 N.pl3   1  UNL1       -0.2971
      9 H          62.5290   84.3206    9.1826 H       1  UNL1        0.1536
     10 C          62.9981   84.3778   13.9014 C.ar    1  UNL1        0.0515
     11 C          64.0625   83.3210   13.9048 C.ar    1  UNL1        0.0148
     12 C          64.5820   82.7756   12.6076 C.ar    1  UNL1        0.0025
     13 C          64.0371   83.2870   11.3071 C.ar    1  UNL1        0.0147
     14 C          62.9726   84.3438   11.3037 C.ar    1  UNL1        0.0506
     15 C          62.4531   84.8892   12.6008 C.ar    1  UNL1        0.0293
     16 C          62.8022   86.4085   17.3055 C.3     1  UNL1        0.0949
     17 C          63.3217   85.8631   16.0083 C.2     1  UNL1        0.2266
     18 O          64.6845   86.2575   15.5210 O.2     1  UNL1       -0.2748
     19 N          62.4786   84.9233   15.1986 N.am    1  UNL1       -0.2839
     20 H          61.5842   84.6644   15.5184 H       1  UNL1        0.1549
     21 N          60.9653   89.2633   12.3336 N.pl3   1  UNL1       -0.2679
     22 H          60.1154   89.4212   12.8046 H       1  UNL1        0.1565
     23 C          62.2285   89.9006   12.8317 C.ar    1  UNL1        0.1344
     24 C          62.7468   89.5692   14.1997 C.ar    1  UNL1        0.0358
     25 C          64.0100   90.2066   14.6979 C.ar    1  UNL1        0.0190
     26 C          64.7549   91.1753   13.8280 C.ar    1  UNL1        0.0675
     27 C          64.2365   91.5067   12.4599 C.ar    1  UNL1        0.1147
     28 N          62.9734   90.8694   11.9618 N.ar    1  UNL1       -0.2277
     29 N          66.0181   91.8126   14.3261 N.pl3   1  UNL1       -0.3034
     30 C          66.0464   92.4667   15.6757 C.3     1  UNL1        0.1082
     31 C          67.3096   93.1041   16.1739 C.3     1  UNL1        0.0938
     32 N          68.5444   93.0874   15.3224 N.3     1  UNL1       -0.2686
     33 C          69.8076   93.7247   15.8206 C.3     1  UNL1        0.0897
     34 C          68.5160   92.4332   13.9728 C.3     1  UNL1        0.0938
     35 C          67.2529   91.7959   13.4747 C.3     1  UNL1        0.1082
@<TRIPOS>BOND
     1    16    17    1
     2    17    18    2
     3    17    19   am
     4    19    10    1
     5    10    11   ar
     6    11    12   ar
     7    12    13   ar
     8    13    14   ar
     9    14     8    1
    10     8     1    1
    11     1     2   ar
    12     2     3   ar
    13     3    21    1
    14    21    23    1
    15    23    24   ar
    16    24    25   ar
    17    25    26   ar
    18    26    29    1
    19    29    30    1
    20    30    31    1
    21    31    32    1
    22    32    33    1
    23    32    34    1
    24    34    35    1
    25    26    27   ar
    26    27    28   ar
    27     3     4   ar
    28     4     5   ar
    29     5     6   ar
    30     6     7    1
    31    14    15   ar
    32    15    10   ar
    33     6     1   ar
    34    28    23   ar
    35    35    29    1
    36    19    20    1
    37     8     9    1
    38    21    22    1
@<TRIPOS>MOLECULE
*****
 35 38 0 0 0
SMALL
GASTEIGER

@<TRIPOS>ATOM
      1 C          63.9631   91.2589   11.9525 C.ar    1  UNL1        0.1472
      2 N          63.7010   90.2722   13.0515 N.ar    1  UNL1       -0.1976
      3 C          64.5613   90.2722   14.2803 C.ar    1  UNL1        0.2229
      4 N          65.6837   91.2588   14.4101 N.ar    1  UNL1       -0.2110
      5 C          65.9458   92.2455   13.3111 C.ar    1  UNL1        0.1160
      6 C          65.0855   92.2455   12.0824 C.ar    1  UNL1        0.1085
      7 CL         65.3476   93.2322   10.9834 Cl      1  UNL1       -0.0777
      8 N          63.1028   91.2590   10.7237 N.pl3   1  UNL1       -0.2971
      9 H          63.2340   91.9462   10.0311 H       1  UNL1        0.1536
     10 C          61.2918   87.9012    9.6303 C.ar    1  UNL1        0.0515
     11 C          59.9226   88.1180   10.2034 C.ar    1  UNL1        0.0148
     12 C          59.6135   89.3818   10.9499 C.ar    1  UNL1        0.0025
     13 C          60.6736   90.4288   11.1233 C.ar    1  UNL1        0.0147
     14 C          62.0427   90.2120   10.5503 C.ar    1  UNL1        0.0506
     15 C          62.3518   88.9482    9.8038 C.ar    1  UNL1        0.0293
     16 C          61.0032   84.9130    7.0347 C.3     1  UNL1        0.0949
     17 C          60.6942   86.1768    7.7812 C.2     1  UNL1        0.2266
     18 O          59.4783   86.9799    7.4251 O.2     1  UNL1       -0.2748
     19 N          61.6008   86.6374    8.8838 N.am    1  UNL1       -0.2839
     20 H          62.3988   86.1103    9.1175 H       1  UNL1        0.1549
     21 N          64.2993   89.2855   15.3793 N.pl3   1  UNL1       -0.2679
     22 H          64.3068   89.5810   16.3183 H       1  UNL1        0.1565
     23 C          64.0257   87.8484   15.0475 C.ar    1  UNL1        0.1344
     24 C          63.8967   86.8363   16.1470 C.ar    1  UNL1        0.0358
     25 C          63.6232   85.3992   15.8153 C.ar    1  UNL1        0.0190
     26 C          63.4785   84.9743   14.3840 C.ar    1  UNL1        0.0675
     27 C          63.6075   85.9865   13.2845 C.ar    1  UNL1        0.1147
     28 N          63.8810   87.4235   13.6162 N.ar    1  UNL1       -0.2277
     29 N          63.2049   83.5373   14.0523 N.pl3   1  UNL1       -0.3034
     30 C          62.0088   82.8471   14.6377 C.3     1  UNL1        0.1082
     31 C          61.7352   81.4100   14.3060 C.3     1  UNL1        0.0938
     32 N          62.6577   80.6632   13.3888 N.3     1  UNL1       -0.2686
     33 C          62.3842   79.2262   13.0570 C.3     1  UNL1        0.0897
     34 C          63.8539   81.3536   12.8033 C.3     1  UNL1        0.0938
     35 C          64.1275   82.7906   13.1351 C.3     1  UNL1        0.1082
@<TRIPOS>BOND
     1    16    17    1
     2    17    18    2
     3    17    19   am
     4    19    10    1
     5    10    11   ar
     6    11    12   ar
     7    12    13   ar
     8    13    14   ar
     9    14     8    1
    10     8     1    1
    11     1     2   ar
    12     2     3   ar
    13     3    21    1
    14    21    23    1
    15    23    24   ar
    16    24    25   ar
    17    25    26   ar
    18    26    29    1
    19    29    30    1
    20    30    31    1
    21    31    32    1
    22    32    33    1
    23    32    34    1
    24    34    35    1
    25    26    27   ar
    26    27    28   ar
    27     3     4   ar
    28     4     5   ar
    29     5     6   ar
    30     6     7    1
    31    14    15   ar
    32    15    10   ar
    33     6     1   ar
    34    28    23   ar
    35    35    29    1
    36    19    20    1
    37     8     9    1
    38    21    22    1
@<TRIPOS>MOLECULE
*****
 35 38 0 0 0
SMALL
GASTEIGER

@<TRIPOS>ATOM
      1 C          60.8539   89.0031   10.2664 C.ar    1  UNL1        0.1472
      2 N          59.9357   89.5658    9.2222 N.ar    1  UNL1       -0.1976
      3 C          59.5946   88.7543    8.0076 C.ar    1  UNL1        0.2229
      4 N          60.1716   87.3803    7.8373 N.ar    1  UNL1       -0.2110
      5 C          61.0898   86.8176    8.8815 C.ar    1  UNL1        0.1160
      6 C          61.4309   87.6290   10.0961 C.ar    1  UNL1        0.1085
      7 CL         62.3490   87.0664   11.1403 Cl      1  UNL1       -0.0777
      8 N          61.1950   89.8146   11.4810 N.pl3   1  UNL1       -0.2971
      9 H          60.5604   89.8674   12.2318 H       1  UNL1        0.1536
     10 C          64.5849   91.3063   12.9069 C.ar    1  UNL1        0.0515
     11 C          65.1190   92.0070   11.6930 C.ar    1  UNL1        0.0148
     12 C          64.3451   91.9769   10.4084 C.ar    1  UNL1        0.0025
     13 C          63.0372   91.2461   10.3377 C.ar    1  UNL1        0.0147
     14 C          62.5030   90.5454   11.5516 C.ar    1  UNL1        0.0506
     15 C          63.2769   90.5755   12.8363 C.ar    1  UNL1        0.0293
     16 C          66.8207   92.6276   15.9079 C.3     1  UNL1        0.0949
     17 C          66.0468   92.5975   14.6233 C.2     1  UNL1        0.2266
     18 O          65.9610   93.8284   13.7703 O.2     1  UNL1       -0.2748
     19 N          65.3588   91.3365   14.1915 N.am    1  UNL1       -0.2839
     20 H          65.4151   90.5286   14.7513 H       1  UNL1        0.1549
     21 N          58.6764   89.3169    6.9633 N.pl3   1  UNL1       -0.2679
     22 H          57.7218   89.0763    6.9660 H       1  UNL1        0.1565
     23 C          59.2128   90.2460    5.9150 C.ar    1  UNL1        0.1344
     24 C          58.2909   91.2015    5.2172 C.ar    1  UNL1        0.0358
     25 C          58.8272   92.1307    4.1688 C.ar    1  UNL1        0.0190
     26 C          60.2854   92.1044    3.8184 C.ar    1  UNL1        0.0675
     27 C          61.2074   91.1489    4.5163 C.ar    1  UNL1        0.1147
     28 N          60.6710   90.2197    5.5646 N.ar    1  UNL1       -0.2277
     29 N          60.8218   93.0336    2.7701 N.pl3   1  UNL1       -0.3034
     30 C          59.9744   94.1635    2.2650 C.3     1  UNL1        0.1082
     31 C          60.5107   95.0927    1.2166 C.3     1  UNL1        0.0938
     32 N          61.8944   94.8919    0.6734 N.3     1  UNL1       -0.2686
     33 C          62.4308   95.8211   -0.3749 C.3     1  UNL1        0.0897
     34 C          62.7418   93.7619    1.1786 C.3     1  UNL1        0.0938
     35 C          62.2055   92.8328    2.2269 C.3     1  UNL1        0.1082
@<TRIPOS>BOND
     1    16    17    1
     2    17    18    2
     3    17    19   am
     4    19    10    1
     5    10    11   ar
     6    11    12   ar
     7    12    13   ar
     8    13    14   ar
     9    14     8    1
    10     8     1    1
    11     1     2   ar
    12     2     3   ar
    13     3    21    1
    14    21    23    1
    15    23    24   ar
    16    24    25   ar
    17    25    26   ar
    18    26    29    1
    19    29    30    1
    20    30    31    1
    21    31    32    1
    22    32    33    1
    23    32    34    1
    24    34    35    1
    25    26    27   ar
    26    27    28   ar
    27     3     4   ar
    28     4     5   ar
    29     5     6   ar
    30     6     7    1
    31    14    15   ar
    32    15    10   ar
    33     6     1   ar
    34    28    23   ar
    35    35    29    1
    36    19    20    1
    37     8     9    1
    38    21    22    1
