@<TRIPOS>MOLECULE
*****
 34 38 0 0 0
SMALL
GASTEIGER

@<TRIPOS>ATOM
      1 C          63.8865   88.2364   13.7488 C.ar    1  UNL1        0.1059
      2 C          64.4118   87.3458   14.8355 C.ar    1  UNL1        0.0183
      3 C          64.2344   85.8595   14.7384 C.ar    1  UNL1        0.0015
      4 C          63.5317   85.2639   13.5544 C.ar    1  UNL1        0.0045
      5 C          63.0065   86.1545   12.4678 C.ar    1  UNL1        0.0549
      6 C          63.1839   87.6408   12.5650 C.ar    1  UNL1        0.0229
      7 C          62.3038   85.5588   11.2840 C.2     1  UNL1        0.2496
      8 O          62.2831   84.0709   11.0946 O.2     1  UNL1       -0.2699
      9 N          61.6219   86.4510   10.2895 N.am    1  UNL1       -0.2661
     10 C          60.8832   86.0022    9.0635 C.3     1  UNL1        0.1236
     11 C          60.3637   87.2225    8.3627 C.ar    1  UNL1        0.0338
     12 C          59.5862   87.6993    7.1719 C.ar    1  UNL1        0.0991
     13 N          59.5232   89.1969    7.2288 N.ar    1  UNL1       -0.2265
     14 N          60.2620   89.6457    8.4547 N.ar    1  UNL1       -0.1679
     15 C          60.7814   88.4253    9.1556 C.ar    1  UNL1        0.0981
     16 C          61.5590   87.9485   10.3463 C.3     1  UNL1        0.1414
     17 C          58.8413   90.0890    6.2343 C.ar    1  UNL1        0.1102
     18 C          57.3447   90.0949    6.1346 C.ar    1  UNL1        0.0214
     19 C          56.6627   90.9871    5.1401 C.ar    1  UNL1        0.0017
     20 C          57.4775   91.8733    4.2453 C.ar    1  UNL1        0.0024
     21 C          58.9742   91.8674    4.3450 C.ar    1  UNL1        0.0312
     22 C          59.6561   90.9753    5.3395 C.ar    1  UNL1        0.1577
     23 F          61.1528   90.9694    5.4391 F       1  UNL1       -0.2026
     24 C          63.3544   83.7776   13.4573 C.ar    1  UNL1        0.0024
     25 C          64.3978   82.9405   12.7788 C.ar    1  UNL1        0.0001
     26 C          64.2204   81.4542   12.6816 C.ar    1  UNL1        0.0023
     27 C          62.9996   80.8050   13.2631 C.ar    1  UNL1        0.0296
     28 C          61.9562   81.6421   13.9417 C.ar    1  UNL1        0.1401
     29 F          60.7354   80.9928   14.5232 F       1  UNL1       -0.2042
     30 C          62.1335   83.1284   14.0388 C.ar    1  UNL1        0.0296
     31 C          64.2413   91.2091   13.9430 C.3     1  UNL1        0.1816
     32 S          64.0639   89.7228   13.8459 S.O2    1  UNL1        0.0105
     33 O          64.3202   89.5960   15.3184 O.2     1  UNL1       -0.1686
     34 O          63.8076   89.8496   12.3734 O.2     1  UNL1       -0.1686
@<TRIPOS>BOND
     1    31    32    1
     2    32    33    2
     3    32    34    2
     4    32     1    1
     5     1     2   ar
     6     2     3   ar
     7     3     4   ar
     8     4    24    1
     9    24    25   ar
    10    25    26   ar
    11    26    27   ar
    12    27    28   ar
    13    28    29    1
    14    28    30   ar
    15     4     5   ar
    16     5     7    1
    17     7     8    2
    18     7     9   am
    19     9    10    1
    20    10    11    1
    21    11    12   ar
    22    12    13   ar
    23    13    17    1
    24    17    18   ar
    25    18    19   ar
    26    19    20   ar
    27    20    21   ar
    28    21    22   ar
    29    22    23    1
    30    13    14   ar
    31    14    15   ar
    32    15    16    1
    33     5     6   ar
    34     6     1   ar
    35    30    24   ar
    36    16     9    1
    37    15    11   ar
    38    22    17   ar
@<TRIPOS>MOLECULE
*****
 34 38 0 0 0
SMALL
GASTEIGER

@<TRIPOS>ATOM
      1 C          66.7292   92.2042   14.4003 C.ar    1  UNL1        0.1059
      2 C          66.3706   92.4754   12.9693 C.ar    1  UNL1        0.0183
      3 C          65.1711   91.8136   12.3583 C.ar    1  UNL1        0.0015
      4 C          64.3303   90.8806   13.1785 C.ar    1  UNL1        0.0045
      5 C          64.6889   90.6094   14.6095 C.ar    1  UNL1        0.0549
      6 C          65.8884   91.2712   15.2204 C.ar    1  UNL1        0.0229
      7 C          63.8480   89.6764   15.4295 C.2     1  UNL1        0.2496
      8 O          63.1809   90.1700   16.6790 O.2     1  UNL1       -0.2699
      9 N          63.6743   88.2497   15.0000 N.am    1  UNL1       -0.2661
     10 C          62.8679   87.2059   15.7142 C.3     1  UNL1        0.1236
     11 C          62.9717   85.9274   14.9365 C.ar    1  UNL1        0.0338
     12 C          62.5375   84.4922   14.8972 C.ar    1  UNL1        0.0991
     13 N          63.1398   83.8589   13.6781 N.ar    1  UNL1       -0.2265
     14 N          63.9463   84.9027   12.9639 N.ar    1  UNL1       -0.1679
     15 C          63.8424   86.1812   13.7417 C.ar    1  UNL1        0.0981
     16 C          64.2766   87.6164   13.7809 C.3     1  UNL1        0.1414
     17 C          62.9661   82.4322   13.2487 C.ar    1  UNL1        0.1102
     18 C          62.4471   81.4143   14.2205 C.ar    1  UNL1        0.0214
     19 C          62.2734   79.9876   13.7910 C.ar    1  UNL1        0.0017
     20 C          62.6187   79.5789   12.3897 C.ar    1  UNL1        0.0024
     21 C          63.1377   80.5968   11.4179 C.ar    1  UNL1        0.0312
     22 C          63.3114   82.0235   11.8474 C.ar    1  UNL1        0.1577
     23 F          63.8305   83.0414   10.8754 F       1  UNL1       -0.2026
     24 C          63.1308   90.2188   12.5675 C.ar    1  UNL1        0.0024
     25 C          61.7897   90.3394   13.2284 C.ar    1  UNL1        0.0001
     26 C          60.5902   89.6776   12.6174 C.ar    1  UNL1        0.0023
     27 C          60.7318   88.8953   11.3455 C.ar    1  UNL1        0.0296
     28 C          62.0729   88.7747   10.6845 C.ar    1  UNL1        0.1401
     29 F          62.2145   87.9924    9.4126 F       1  UNL1       -0.2042
     30 C          63.2724   89.4365   11.2955 C.ar    1  UNL1        0.0296
     31 C          69.1282   93.5277   15.6223 C.3     1  UNL1        0.1816
     32 S          67.9287   92.8659   15.0113 S.O2    1  UNL1        0.0105
     33 O          68.7614   92.4389   13.8390 O.2     1  UNL1       -0.1686
     34 O          67.0960   93.2929   16.1836 O.2     1  UNL1       -0.1686
@<TRIPOS>BOND
     1    31    32    1
     2    32    33    2
     3    32    34    2
     4    32     1    1
     5     1     2   ar
     6     2     3   ar
     7     3     4   ar
     8     4    24    1
     9    24    25   ar
    10    25    26   ar
    11    26    27   ar
    12    27    28   ar
    13    28    29    1
    14    28    30   ar
    15     4     5   ar
    16     5     7    1
    17     7     8    2
    18     7     9   am
    19     9    10    1
    20    10    11    1
    21    11    12   ar
    22    12    13   ar
    23    13    17    1
    24    17    18   ar
    25    18    19   ar
    26    19    20   ar
    27    20    21   ar
    28    21    22   ar
    29    22    23    1
    30    13    14   ar
    31    14    15   ar
    32    15    16    1
    33     5     6   ar
    34     6     1   ar
    35    30    24   ar
    36    16     9    1
    37    15    11   ar
    38    22    17   ar
@<TRIPOS>MOLECULE
*****
 34 38 0 0 0
SMALL
GASTEIGER

@<TRIPOS>ATOM
      1 C          59.5950   88.9855    7.2507 C.ar    1  UNL1        0.1059
      2 C          60.2713   87.7607    6.7099 C.ar    1  UNL1        0.0183
      3 C          60.9686   86.8154    7.6427 C.ar    1  UNL1        0.0015
      4 C          60.9896   87.0950    9.1164 C.ar    1  UNL1        0.0045
      5 C          60.3133   88.3198    9.6571 C.ar    1  UNL1        0.0549
      6 C          59.6159   89.2651    8.7242 C.ar    1  UNL1        0.0229
      7 C          60.3343   88.5993   11.1307 C.2     1  UNL1        0.2496
      8 O          59.1552   88.2298   11.9810 O.2     1  UNL1       -0.2699
      9 N          61.5344   89.2483   11.7539 N.am    1  UNL1       -0.2661
     10 C          61.6990   89.5878   13.2057 C.3     1  UNL1        0.1236
     11 C          63.0471   90.2211   13.3837 C.ar    1  UNL1        0.0338
     12 C          63.9819   90.8223   14.3910 C.ar    1  UNL1        0.0991
     13 N          65.2282   91.2458   13.6717 N.ar    1  UNL1       -0.2265
     14 N          65.0637   90.9064   12.2199 N.ar    1  UNL1       -0.1679
     15 C          63.7156   90.2730   12.0419 C.ar    1  UNL1        0.0981
     16 C          62.7808   89.6718   11.0346 C.3     1  UNL1        0.1414
     17 C          66.4284   91.8948   14.2949 C.ar    1  UNL1        0.1102
     18 C          67.7392   91.9044   13.5658 C.ar    1  UNL1        0.0214
     19 C          68.9394   92.5534   14.1890 C.ar    1  UNL1        0.0017
     20 C          68.8287   93.1929   15.5413 C.ar    1  UNL1        0.0024
     21 C          67.5179   93.1833   16.2705 C.ar    1  UNL1        0.0312
     22 C          66.3177   92.5343   15.6473 C.ar    1  UNL1        0.1577
     23 F          65.0069   92.5248   16.3765 F       1  UNL1       -0.2026
     24 C          61.6869   86.1497   10.0492 C.ar    1  UNL1        0.0024
     25 C          61.3813   86.1829   11.5173 C.ar    1  UNL1        0.0001
     26 C          62.0786   85.2376   12.4501 C.ar    1  UNL1        0.0023
     27 C          63.0815   84.2590   11.9148 C.ar    1  UNL1        0.0296
     28 C          63.3872   84.2258   10.4466 C.ar    1  UNL1        0.1401
     29 F          64.3901   83.2473    9.9113 F       1  UNL1       -0.2042
     30 C          62.6898   85.1711    9.5138 C.ar    1  UNL1        0.0296
     31 C          58.2003   90.8761    5.3850 C.3     1  UNL1        0.1816
     32 S          58.8976   89.9308    6.3179 S.O2    1  UNL1        0.0105
     33 O          57.5705   89.3953    6.7673 O.2     1  UNL1       -0.1686
     34 O          60.2248   90.4663    5.8685 O.2     1  UNL1       -0.1686
@<TRIPOS>BOND
     1    31    32    1
     2    32    33    2
     3    32    34    2
     4    32     1    1
     5     1     2   ar
     6     2     3   ar
     7     3     4   ar
     8     4    24    1
     9    24    25   ar
    10    25    26   ar
    11    26    27   ar
    12    27    28   ar
    13    28    29    1
    14    28    30   ar
    15     4     5   ar
    16     5     7    1
    17     7     8    2
    18     7     9   am
    19     9    10    1
    20    10    11    1
    21    11    12   ar
    22    12    13   ar
    23    13    17    1
    24    17    18   ar
    25    18    19   ar
    26    19    20   ar
    27    20    21   ar
    28    21    22   ar
    29    22    23    1
    30    13    14   ar
    31    14    15   ar
    32    15    16    1
    33     5     6   ar
    34     6     1   ar
    35    30    24   ar
    36    16     9    1
    37    15    11   ar
    38    22    17   ar
@<TRIPOS>MOLECULE
*****
 34 38 0 0 0
SMALL
GASTEIGER

@<TRIPOS>ATOM
      1 C          55.1600   90.8557   -5.9335 C.ar    1  UNL1        0.1059
      2 C          55.8837   90.9253   -7.2455 C.ar    1  UNL1        0.0183
      3 C          56.7703   92.0957   -7.5519 C.ar    1  UNL1        0.0015
      4 C          56.9332   93.1967   -6.5462 C.ar    1  UNL1        0.0045
      5 C          56.2095   93.1272   -5.2341 C.ar    1  UNL1        0.0549
      6 C          55.3229   91.9566   -4.9278 C.ar    1  UNL1        0.0229
      7 C          56.3724   94.2281   -4.2285 C.2     1  UNL1        0.2496
      8 O          55.3360   95.3073   -4.1233 O.2     1  UNL1       -0.2699
      9 N          57.5719   94.2499   -3.3280 N.am    1  UNL1       -0.2661
     10 C          57.8689   95.2810   -2.2799 C.3     1  UNL1        0.1236
     11 C          59.1655   94.9127   -1.6216 C.ar    1  UNL1        0.0338
     12 C          60.1504   95.3223   -0.5671 C.ar    1  UNL1        0.0991
     13 N          61.2634   94.3167   -0.5567 N.ar    1  UNL1       -0.2265
     14 N          60.9664   93.2856   -1.6048 N.ar    1  UNL1       -0.1679
     15 C          59.6697   93.6540   -2.2630 C.ar    1  UNL1        0.0981
     16 C          58.6849   93.2443   -3.3176 C.3     1  UNL1        0.1414
     17 C          62.4628   94.3385    0.3438 C.ar    1  UNL1        0.1102
     18 C          63.3690   95.5338    0.3573 C.ar    1  UNL1        0.0214
     19 C          64.5684   95.5556    1.2578 C.ar    1  UNL1        0.0017
     20 C          64.8617   94.3820    2.1448 C.ar    1  UNL1        0.0024
     21 C          63.9555   93.1867    2.1313 C.ar    1  UNL1        0.0312
     22 C          62.7561   93.1650    1.2308 C.ar    1  UNL1        0.1577
     23 F          61.8500   91.9696    1.2174 F       1  UNL1       -0.2026
     24 C          57.8198   94.3672   -6.8526 C.ar    1  UNL1        0.0024
     25 C          57.2163   95.6809   -7.2522 C.ar    1  UNL1        0.0001
     26 C          58.1029   96.8514   -7.5586 C.ar    1  UNL1        0.0023
     27 C          59.5931   96.7081   -7.4653 C.ar    1  UNL1        0.0296
     28 C          60.1967   95.3944   -7.0657 C.ar    1  UNL1        0.1401
     29 F          61.6869   95.2511   -6.9724 F       1  UNL1       -0.2042
     30 C          59.3101   94.2239   -6.7593 C.ar    1  UNL1        0.0296
     31 C          53.3867   88.5148   -5.3207 C.3     1  UNL1        0.1816
     32 S          54.2733   89.6853   -5.6271 S.O2    1  UNL1        0.0105
     33 O          53.6893   89.7667   -7.0064 O.2     1  UNL1       -0.1686
     34 O          54.8574   89.6039   -4.2479 O.2     1  UNL1       -0.1686
@<TRIPOS>BOND
     1    31    32    1
     2    32    33    2
     3    32    34    2
     4    32     1    1
     5     1     2   ar
     6     2     3   ar
     7     3     4   ar
     8     4    24    1
     9    24    25   ar
    10    25    26   ar
    11    26    27   ar
    12    27    28   ar
    13    28    29    1
    14    28    30   ar
    15     4     5   ar
    16     5     7    1
    17     7     8    2
    18     7     9   am
    19     9    10    1
    20    10    11    1
    21    11    12   ar
    22    12    13   ar
    23    13    17    1
    24    17    18   ar
    25    18    19   ar
    26    19    20   ar
    27    20    21   ar
    28    21    22   ar
    29    22    23    1
    30    13    14   ar
    31    14    15   ar
    32    15    16    1
    33     5     6   ar
    34     6     1   ar
    35    30    24   ar
    36    16     9    1
    37    15    11   ar
    38    22    17   ar
@<TRIPOS>MOLECULE
*****
 34 38 0 0 0
SMALL
GASTEIGER

@<TRIPOS>ATOM
      1 C          65.8385   92.5548   12.1029 C.ar    1  UNL1        0.1059
      2 C          66.4903   92.2789   13.4254 C.ar    1  UNL1        0.0183
      3 C          65.8889   91.2742   14.3629 C.ar    1  UNL1        0.0015
      4 C          64.6357   90.5453   13.9777 C.ar    1  UNL1        0.0045
      5 C          63.9839   90.8211   12.6551 C.ar    1  UNL1        0.0549
      6 C          64.5854   91.8259   11.7177 C.ar    1  UNL1        0.0229
      7 C          62.7308   90.0922   12.2701 C.2     1  UNL1        0.2496
      8 O          61.4832   90.8618   11.9516 O.2     1  UNL1       -0.2699
      9 N          62.7252   88.5937   12.2034 N.am    1  UNL1       -0.2661
     10 C          61.5538   87.7319   11.8357 C.3     1  UNL1        0.1236
     11 C          61.9947   86.2994   11.8978 C.ar    1  UNL1        0.0338
     12 C          61.5433   84.8815   11.7090 C.ar    1  UNL1        0.0991
     13 N          62.7081   83.9818   11.9984 N.ar    1  UNL1       -0.2265
     14 N          63.8794   84.8436   12.3662 N.ar    1  UNL1       -0.1679
     15 C          63.4385   86.2761   12.3040 C.ar    1  UNL1        0.0981
     16 C          63.8899   87.6940   12.4929 C.3     1  UNL1        0.1414
     17 C          62.7025   82.4833   11.9318 C.ar    1  UNL1        0.1102
     18 C          63.0795   81.7878   10.6574 C.ar    1  UNL1        0.0214
     19 C          63.0739   80.2893   10.5908 C.ar    1  UNL1        0.0017
     20 C          62.6913   79.4863   11.7985 C.ar    1  UNL1        0.0024
     21 C          62.3142   80.1818   13.0729 C.ar    1  UNL1        0.0312
     22 C          62.3198   81.6803   13.1396 C.ar    1  UNL1        0.1577
     23 F          61.9427   82.3757   14.4140 F       1  UNL1       -0.2026
     24 C          64.0343   89.5406   14.9151 C.ar    1  UNL1        0.0024
     25 C          62.9469   89.9549   15.8617 C.ar    1  UNL1        0.0001
     26 C          62.3455   88.9502   16.7992 C.ar    1  UNL1        0.0023
     27 C          62.8315   87.5311   16.7901 C.ar    1  UNL1        0.0296
     28 C          63.9188   87.1168   15.8435 C.ar    1  UNL1        0.1401
     29 F          64.4047   85.6977   15.8344 F       1  UNL1       -0.2042
     30 C          64.5202   88.1215   14.9060 C.ar    1  UNL1        0.0296
     31 C          67.0413   94.5642   10.2279 C.3     1  UNL1        0.1816
     32 S          66.4399   93.5595   11.1654 S.O2    1  UNL1        0.0105
     33 O          66.7371   92.4653   10.1833 O.2     1  UNL1       -0.1686
     34 O          66.1428   94.6537   12.1475 O.2     1  UNL1       -0.1686
@<TRIPOS>BOND
     1    31    32    1
     2    32    33    2
     3    32    34    2
     4    32     1    1
     5     1     2   ar
     6     2     3   ar
     7     3     4   ar
     8     4    24    1
     9    24    25   ar
    10    25    26   ar
    11    26    27   ar
    12    27    28   ar
    13    28    29    1
    14    28    30   ar
    15     4     5   ar
    16     5     7    1
    17     7     8    2
    18     7     9   am
    19     9    10    1
    20    10    11    1
    21    11    12   ar
    22    12    13   ar
    23    13    17    1
    24    17    18   ar
    25    18    19   ar
    26    19    20   ar
    27    20    21   ar
    28    21    22   ar
    29    22    23    1
    30    13    14   ar
    31    14    15   ar
    32    15    16    1
    33     5     6   ar
    34     6     1   ar
    35    30    24   ar
    36    16     9    1
    37    15    11   ar
    38    22    17   ar
