@<TRIPOS>MOLECULE
*****
 32 35 0 0 0
SMALL
GASTEIGER

@<TRIPOS>ATOM
      1 C          63.8749   88.9085   13.4927 C.ar    1  UNL1        0.1389
      2 C          62.9762   88.0485   12.6545 C.ar    1  UNL1        0.0396
      3 C          62.3269   88.6154   11.4269 C.ar    1  UNL1        0.0340
      4 C          61.4282   87.7553   10.5886 C.ar    1  UNL1        0.0520
      5 C          60.7788   88.3222    9.3611 C.ar    1  UNL1        0.0853
      6 C          61.0282   89.7493    8.9717 C.ar    1  UNL1        0.1045
      7 N          61.9269   90.6093    9.8100 N.ar    1  UNL1       -0.2436
      8 C          62.5762   90.0423   11.0376 C.ar    1  UNL1        0.0827
      9 C          63.4749   90.9024   11.8758 C.ar    1  UNL1        0.0223
     10 C          64.1243   90.3354   13.1034 C.ar    1  UNL1        0.0394
     11 C          65.0230   91.1955   13.9416 C.ar    1  UNL1        0.0526
     12 C          64.8493   91.4916   15.4018 C.ar    1  UNL1        0.1007
     13 C          63.7464   90.9797   16.2802 C.3     1  UNL1        0.0557
     14 N          65.9721   92.3896   15.8295 N.ar    1  UNL1       -0.0817
     15 O          66.8398   92.6485   14.6335 O.2     1  UNL1       -0.3581
     16 C          66.2532   91.9105   13.4668 C.ar    1  UNL1        0.1545
     17 C          66.8007   91.8910   12.0704 C.3     1  UNL1        0.0754
     18 C          59.8802   87.4622    8.5228 C.2     1  UNL1        0.2455
     19 N          58.7724   88.0870    7.7273 N.am    1  UNL1       -0.3252
     20 O          60.0891   85.9775    8.4800 O.2     1  UNL1       -0.2703
     21 H          58.6352   89.0615    7.7554 H       1  UNL1        0.1453
     22 H          58.1826   87.5225    7.1772 H       1  UNL1        0.1453
     23 C          64.5047   86.8616   14.9636 C.3     1  UNL1        0.2525
     24 O          64.5242   88.3416   14.7203 O.3     1  UNL1       -0.4714
     25 N          61.1788   86.3284   10.9780 N.pl3   1  UNL1       -0.3338
     26 H          60.3043   86.0638   11.3447 H       1  UNL1        0.1468
     27 C          62.2618   85.3045   10.8085 C.3     1  UNL1        0.0690
     28 C          62.8600   85.0625    9.4544 C.3     1  UNL1        0.0195
     29 C          63.9430   84.0386    9.2850 C.3     1  UNL1        0.0017
     30 C          64.4279   83.2567   10.4696 C.3     1  UNL1        0.0001
     31 C          63.8297   83.4987   11.8238 C.3     1  UNL1        0.0017
     32 C          62.7467   84.5226   11.9933 C.3     1  UNL1        0.0195
@<TRIPOS>BOND
     1    23    24    1
     2    24     1    1
     3     1     2   ar
     4     2     3   ar
     5     3     4   ar
     6     4    25    1
     7    25    27    1
     8    27    28    1
     9    28    29    1
    10    29    30    1
    11    30    31    1
    12    31    32    1
    13     4     5   ar
    14     5    18    1
    15    18    19   am
    16    18    20    2
    17     5     6   ar
    18     6     7   ar
    19     7     8   ar
    20     8     9   ar
    21     9    10   ar
    22    10    11    1
    23    11    12   ar
    24    12    13    1
    25    12    14   ar
    26    14    15   ar
    27    15    16   ar
    28    16    17    1
    29    10     1   ar
    30    16    11   ar
    31     8     3   ar
    32    32    27    1
    33    25    26    1
    34    19    21    1
    35    19    22    1
@<TRIPOS>MOLECULE
*****
 32 35 0 0 0
SMALL
GASTEIGER

@<TRIPOS>ATOM
      1 C          63.8531   88.9202   13.5100 C.ar    1  UNL1        0.1389
      2 C          62.9580   88.0601   12.6680 C.ar    1  UNL1        0.0396
      3 C          62.3143   88.6268   11.4374 C.ar    1  UNL1        0.0340
      4 C          61.4191   87.7667   10.5954 C.ar    1  UNL1        0.0520
      5 C          60.7753   88.3334    9.3647 C.ar    1  UNL1        0.0853
      6 C          61.0268   89.7602    8.9761 C.ar    1  UNL1        0.1045
      7 N          61.9219   90.6203    9.8181 N.ar    1  UNL1       -0.2436
      8 C          62.5657   90.0536   11.0487 C.ar    1  UNL1        0.0827
      9 C          63.4608   90.9136   11.8907 C.ar    1  UNL1        0.0223
     10 C          64.1045   90.3469   13.1213 C.ar    1  UNL1        0.0394
     11 C          64.9997   91.2071   13.9633 C.ar    1  UNL1        0.0526
     12 C          66.2279   91.9278   13.4920 C.ar    1  UNL1        0.1007
     13 C          66.7766   91.9150   12.0961 C.3     1  UNL1        0.0557
     14 N          66.8111   92.6636   14.6618 N.ar    1  UNL1       -0.0817
     15 O          65.9433   92.3977   15.8562 O.2     1  UNL1       -0.3581
     16 C          64.8238   91.4975   15.4244 C.ar    1  UNL1        0.1545
     17 C          63.7219   90.9787   16.3000 C.3     1  UNL1        0.0754
     18 C          59.8802   87.4733    8.5228 C.2     1  UNL1        0.2455
     19 N          58.7620   88.0954    7.7400 N.am    1  UNL1       -0.3252
     20 O          60.1032   85.9911    8.4635 O.2     1  UNL1       -0.2703
     21 H          58.6156   89.0681    7.7788 H       1  UNL1        0.1453
     22 H          58.1744   87.5309    7.1874 H       1  UNL1        0.1453
     23 C          64.5120   86.8703   14.9638 C.3     1  UNL1        0.2525
     24 O          64.4969   88.3535   14.7406 O.3     1  UNL1       -0.4714
     25 N          61.1677   86.3399   10.9840 N.pl3   1  UNL1       -0.3338
     26 H          60.2946   86.0774   11.3555 H       1  UNL1        0.1468
     27 C          62.2466   85.3130   10.8067 C.3     1  UNL1        0.0690
     28 C          62.8517   85.0870    9.4529 C.3     1  UNL1        0.0195
     29 C          63.9306   84.0601    9.2756 C.3     1  UNL1        0.0017
     30 C          64.4044   83.2592   10.4520 C.3     1  UNL1        0.0001
     31 C          63.7992   83.4851   11.8059 C.3     1  UNL1        0.0017
     32 C          62.7203   84.5120   11.9832 C.3     1  UNL1        0.0195
@<TRIPOS>BOND
     1    23    24    1
     2    24     1    1
     3     1     2   ar
     4     2     3   ar
     5     3     4   ar
     6     4    25    1
     7    25    27    1
     8    27    28    1
     9    28    29    1
    10    29    30    1
    11    30    31    1
    12    31    32    1
    13     4     5   ar
    14     5    18    1
    15    18    19   am
    16    18    20    2
    17     5     6   ar
    18     6     7   ar
    19     7     8   ar
    20     8     9   ar
    21     9    10   ar
    22    10    11    1
    23    11    12   ar
    24    12    13    1
    25    12    14   ar
    26    14    15   ar
    27    15    16   ar
    28    16    17    1
    29    10     1   ar
    30    16    11   ar
    31     8     3   ar
    32    32    27    1
    33    25    26    1
    34    19    21    1
    35    19    22    1
@<TRIPOS>MOLECULE
*****
 32 35 0 0 0
SMALL
GASTEIGER

@<TRIPOS>ATOM
      1 C          62.5221   86.3280   11.1225 C.ar    1  UNL1        0.1389
      2 C          63.2667   86.9439   12.2697 C.ar    1  UNL1        0.0396
      3 C          63.3756   88.4360   12.3786 C.ar    1  UNL1        0.0340
      4 C          64.1203   89.0519   13.5259 C.ar    1  UNL1        0.0520
      5 C          64.2291   90.5440   13.6348 C.ar    1  UNL1        0.0853
      6 C          63.5933   91.4202   12.5964 C.ar    1  UNL1        0.1045
      7 N          62.8487   90.8042   11.4492 N.ar    1  UNL1       -0.2436
      8 C          62.7398   89.3122   11.3403 C.ar    1  UNL1        0.0827
      9 C          61.9952   88.6962   10.1931 C.ar    1  UNL1        0.0223
     10 C          61.8864   87.2042   10.0842 C.ar    1  UNL1        0.0394
     11 C          61.1417   86.5882    8.9369 C.ar    1  UNL1        0.0526
     12 C          61.6951   85.5958    7.9577 C.ar    1  UNL1        0.1007
     13 C          63.0903   85.0451    7.9537 C.3     1  UNL1        0.0557
     14 N          60.6083   85.2509    6.9830 N.ar    1  UNL1       -0.0817
     15 O          59.3832   86.0301    7.3599 O.2     1  UNL1       -0.3581
     16 C          59.7129   86.8566    8.5674 C.ar    1  UNL1        0.1545
     17 C          58.7779   87.7880    9.2804 C.3     1  UNL1        0.0754
     18 C          64.9737   91.1599   14.7820 C.2     1  UNL1        0.2455
     19 N          66.4637   91.3181   14.7106 N.am    1  UNL1       -0.3252
     20 O          64.2285   91.6177   16.0006 O.2     1  UNL1       -0.2703
     21 H          66.9529   91.0177   13.9108 H       1  UNL1        0.1453
     22 H          66.9524   91.7224   15.4636 H       1  UNL1        0.1453
     23 C          63.0547   83.9596   12.0482 C.3     1  UNL1        0.2525
     24 O          62.4133   84.8359   11.0136 O.3     1  UNL1       -0.4714
     25 N          64.7560   88.1758   14.5642 N.pl3   1  UNL1       -0.3338
     26 H          65.7332   88.0568   14.5766 H       1  UNL1        0.1468
     27 C          63.9029   87.4808   15.5836 C.3     1  UNL1        0.0690
     28 C          63.2230   88.2748   16.6594 C.3     1  UNL1        0.0195
     29 C          62.3699   87.5798   17.6788 C.3     1  UNL1        0.0017
     30 C          62.1968   86.0909   17.6225 C.3     1  UNL1        0.0001
     31 C          62.8768   85.2969   16.5467 C.3     1  UNL1        0.0017
     32 C          63.7298   85.9919   15.5273 C.3     1  UNL1        0.0195
@<TRIPOS>BOND
     1    23    24    1
     2    24     1    1
     3     1     2   ar
     4     2     3   ar
     5     3     4   ar
     6     4    25    1
     7    25    27    1
     8    27    28    1
     9    28    29    1
    10    29    30    1
    11    30    31    1
    12    31    32    1
    13     4     5   ar
    14     5    18    1
    15    18    19   am
    16    18    20    2
    17     5     6   ar
    18     6     7   ar
    19     7     8   ar
    20     8     9   ar
    21     9    10   ar
    22    10    11    1
    23    11    12   ar
    24    12    13    1
    25    12    14   ar
    26    14    15   ar
    27    15    16   ar
    28    16    17    1
    29    10     1   ar
    30    16    11   ar
    31     8     3   ar
    32    32    27    1
    33    25    26    1
    34    19    21    1
    35    19    22    1
@<TRIPOS>MOLECULE
*****
 32 35 0 0 0
SMALL
GASTEIGER

@<TRIPOS>ATOM
      1 C          65.6012   92.7156   12.4327 C.ar    1  UNL1        0.1389
      2 C          64.5217   91.8459   13.0056 C.ar    1  UNL1        0.0396
      3 C          63.4977   91.2272   12.1008 C.ar    1  UNL1        0.0340
      4 C          62.4182   90.3575   12.6738 C.ar    1  UNL1        0.0520
      5 C          61.3942   89.7388   11.7689 C.ar    1  UNL1        0.0853
      6 C          61.4498   89.9900   10.2911 C.ar    1  UNL1        0.1045
      7 N          62.5293   90.8597    9.7182 N.ar    1  UNL1       -0.2436
      8 C          63.5532   91.4783   10.6230 C.ar    1  UNL1        0.0827
      9 C          64.6327   92.3480   10.0501 C.ar    1  UNL1        0.0223
     10 C          65.6567   92.9667   10.9550 C.ar    1  UNL1        0.0394
     11 C          66.7362   93.8364   10.3820 C.ar    1  UNL1        0.0526
     12 C          66.7735   95.3355   10.4195 C.ar    1  UNL1        0.1007
     13 C          65.7379   96.2281   11.0366 C.3     1  UNL1        0.0557
     14 N          68.0283   95.7853    9.7316 N.ar    1  UNL1       -0.0817
     15 O          68.7665   94.5642    9.2689 O.2     1  UNL1       -0.3581
     16 C          67.9679   93.3598    9.6709 C.ar    1  UNL1        0.1545
     17 C          68.3364   91.9297    9.4079 C.3     1  UNL1        0.0754
     18 C          60.3148   88.8691   12.3418 C.2     1  UNL1        0.2455
     19 N          60.0851   87.4948   11.7864 N.am    1  UNL1       -0.3252
     20 O          59.4650   89.3737   13.4702 O.2     1  UNL1       -0.2703
     21 H          60.6428   87.1636   11.0458 H       1  UNL1        0.1453
     22 H          59.3766   86.9239   12.1624 H       1  UNL1        0.1453
     23 C          66.5376   93.1283   14.8208 C.3     1  UNL1        0.2525
     24 O          66.6252   93.3342   13.3376 O.3     1  UNL1       -0.4714
     25 N          62.3627   90.1064   14.1515 N.pl3   1  UNL1       -0.3338
     26 H          61.9243   90.7578   14.7454 H       1  UNL1        0.1468
     27 C          62.9753   88.8628   14.7245 C.3     1  UNL1        0.0690
     28 C          63.8181   87.9743   13.8585 C.3     1  UNL1        0.0195
     29 C          64.4307   86.7307   14.4315 C.3     1  UNL1        0.0017
     30 C          64.2004   86.3757   15.8705 C.3     1  UNL1        0.0001
     31 C          63.3575   87.2643   16.7367 C.3     1  UNL1        0.0017
     32 C          62.7450   88.5078   16.1637 C.3     1  UNL1        0.0195
@<TRIPOS>BOND
     1    23    24    1
     2    24     1    1
     3     1     2   ar
     4     2     3   ar
     5     3     4   ar
     6     4    25    1
     7    25    27    1
     8    27    28    1
     9    28    29    1
    10    29    30    1
    11    30    31    1
    12    31    32    1
    13     4     5   ar
    14     5    18    1
    15    18    19   am
    16    18    20    2
    17     5     6   ar
    18     6     7   ar
    19     7     8   ar
    20     8     9   ar
    21     9    10   ar
    22    10    11    1
    23    11    12   ar
    24    12    13    1
    25    12    14   ar
    26    14    15   ar
    27    15    16   ar
    28    16    17    1
    29    10     1   ar
    30    16    11   ar
    31     8     3   ar
    32    32    27    1
    33    25    26    1
    34    19    21    1
    35    19    22    1
@<TRIPOS>MOLECULE
*****
 32 35 0 0 0
SMALL
GASTEIGER

@<TRIPOS>ATOM
      1 C          63.3774   89.7404   12.6603 C.ar    1  UNL1        0.1389
      2 C          62.8251   88.3583   12.4742 C.ar    1  UNL1        0.0396
      3 C          63.3603   87.2204   13.2920 C.ar    1  UNL1        0.0340
      4 C          62.8080   85.8382   13.1059 C.ar    1  UNL1        0.0520
      5 C          63.3432   84.7003   13.9237 C.ar    1  UNL1        0.0853
      6 C          64.4307   84.9446   14.9276 C.ar    1  UNL1        0.1045
      7 N          64.9830   86.3268   15.1137 N.ar    1  UNL1       -0.2436
      8 C          64.4478   87.4646   14.2959 C.ar    1  UNL1        0.0827
      9 C          65.0000   88.8468   14.4819 C.ar    1  UNL1        0.0223
     10 C          64.4648   89.9847   13.6641 C.ar    1  UNL1        0.0394
     11 C          65.0171   91.3669   13.8502 C.ar    1  UNL1        0.0526
     12 C          65.6580   92.2106   12.7885 C.ar    1  UNL1        0.1007
     13 C          65.8592   91.8204   11.3542 C.3     1  UNL1        0.0557
     14 N          66.0625   93.5131   13.4128 N.ar    1  UNL1       -0.0817
     15 O          65.6716   93.4744   14.8605 O.2     1  UNL1       -0.3581
     16 C          65.0255   92.1479   15.1308 C.ar    1  UNL1        0.1545
     17 C          64.4831   91.6840   16.4501 C.3     1  UNL1        0.0754
     18 C          62.7909   83.3182   13.7377 C.2     1  UNL1        0.2455
     19 N          62.3896   82.5038   14.9318 N.am    1  UNL1       -0.3252
     20 O          62.6400   82.7503   12.3575 O.2     1  UNL1       -0.2703
     21 H          62.4886   82.8765   15.8376 H       1  UNL1        0.1453
     22 H          62.0271   81.5967   14.8096 H       1  UNL1        0.1453
     23 C          62.4124   90.6456   10.4244 C.3     1  UNL1        0.2525
     24 O          62.8422   90.8783   11.8425 O.3     1  UNL1       -0.4714
     25 N          61.7206   85.5939   12.1021 N.pl3   1  UNL1       -0.3338
     26 H          60.7846   85.5203   12.3984 H       1  UNL1        0.1468
     27 C          62.0591   85.4619   10.6467 C.3     1  UNL1        0.0690
     28 C          61.2251   86.1633    9.6161 C.3     1  UNL1        0.0195
     29 C          61.5637   86.0313    8.1608 C.3     1  UNL1        0.0017
     30 C          62.7362   85.1979    7.7361 C.3     1  UNL1        0.0001
     31 C          63.5703   84.4964    8.7668 C.3     1  UNL1        0.0017
     32 C          63.2318   84.6284   10.2221 C.3     1  UNL1        0.0195
@<TRIPOS>BOND
     1    23    24    1
     2    24     1    1
     3     1     2   ar
     4     2     3   ar
     5     3     4   ar
     6     4    25    1
     7    25    27    1
     8    27    28    1
     9    28    29    1
    10    29    30    1
    11    30    31    1
    12    31    32    1
    13     4     5   ar
    14     5    18    1
    15    18    19   am
    16    18    20    2
    17     5     6   ar
    18     6     7   ar
    19     7     8   ar
    20     8     9   ar
    21     9    10   ar
    22    10    11    1
    23    11    12   ar
    24    12    13    1
    25    12    14   ar
    26    14    15   ar
    27    15    16   ar
    28    16    17    1
    29    10     1   ar
    30    16    11   ar
    31     8     3   ar
    32    32    27    1
    33    25    26    1
    34    19    21    1
    35    19    22    1
@<TRIPOS>MOLECULE
*****
 32 35 0 0 0
SMALL
GASTEIGER

@<TRIPOS>ATOM
      1 C          62.9692   85.7170   13.0017 C.ar    1  UNL1        0.1389
      2 C          62.4031   87.0160   12.5099 C.ar    1  UNL1        0.0396
      3 C          61.7162   87.0784   11.1779 C.ar    1  UNL1        0.0340
      4 C          61.1502   88.3776   10.6860 C.ar    1  UNL1        0.0520
      5 C          60.4632   88.4400    9.3541 C.ar    1  UNL1        0.0853
      6 C          60.3423   87.2032    8.5139 C.ar    1  UNL1        0.1045
      7 N          60.9083   85.9041    9.0057 N.ar    1  UNL1       -0.2436
      8 C          61.5952   85.8417   10.3377 C.ar    1  UNL1        0.0827
      9 C          62.1613   84.5426   10.8296 C.ar    1  UNL1        0.0223
     10 C          62.8482   84.4803   12.1616 C.ar    1  UNL1        0.0394
     11 C          63.4142   83.1811   12.6534 C.ar    1  UNL1        0.0526
     12 C          63.1534   82.5561   13.9918 C.ar    1  UNL1        0.1007
     13 C          62.2808   83.1205   15.0734 C.3     1  UNL1        0.0557
     14 N          63.9184   81.2676   14.0587 N.ar    1  UNL1       -0.0817
     15 O          64.6521   81.0962   12.7616 O.2     1  UNL1       -0.3581
     16 C          64.3405   82.2788   11.8931 C.ar    1  UNL1        0.1545
     17 C          64.8633   82.5173   10.5075 C.3     1  UNL1        0.0754
     18 C          59.8972   89.7391    8.8622 C.2     1  UNL1        0.2455
     19 N          59.7531   89.9847    7.3894 N.am    1  UNL1       -0.3252
     20 O          59.4753   90.7926    9.8431 O.2     1  UNL1       -0.2703
     21 H          60.0300   89.2933    6.7457 H       1  UNL1        0.1453
     22 H          59.3816   90.8374    7.0666 H       1  UNL1        0.1453
     23 C          64.3901   86.8539   14.8559 C.3     1  UNL1        0.2525
     24 O          63.6561   85.6546   14.3337 O.3     1  UNL1       -0.4714
     25 N          61.2711   89.6143   11.5262 N.pl3   1  UNL1       -0.3338
     26 H          60.5185   89.8999   12.0930 H       1  UNL1        0.1468
     27 C          62.5388   90.4159   11.5028 C.3     1  UNL1        0.0690
     28 C          63.3590   90.5586   12.7506 C.3     1  UNL1        0.0195
     29 C          64.6266   91.3602   12.7272 C.3     1  UNL1        0.0017
     30 C          65.0741   92.0190   11.4561 C.3     1  UNL1        0.0001
     31 C          64.2539   91.8763   10.2083 C.3     1  UNL1        0.0017
     32 C          62.9862   91.0747   10.2317 C.3     1  UNL1        0.0195
@<TRIPOS>BOND
     1    23    24    1
     2    24     1    1
     3     1     2   ar
     4     2     3   ar
     5     3     4   ar
     6     4    25    1
     7    25    27    1
     8    27    28    1
     9    28    29    1
    10    29    30    1
    11    30    31    1
    12    31    32    1
    13     4     5   ar
    14     5    18    1
    15    18    19   am
    16    18    20    2
    17     5     6   ar
    18     6     7   ar
    19     7     8   ar
    20     8     9   ar
    21     9    10   ar
    22    10    11    1
    23    11    12   ar
    24    12    13    1
    25    12    14   ar
    26    14    15   ar
    27    15    16   ar
    28    16    17    1
    29    10     1   ar
    30    16    11   ar
    31     8     3   ar
    32    32    27    1
    33    25    26    1
    34    19    21    1
    35    19    22    1
@<TRIPOS>MOLECULE
*****
 32 35 0 0 0
SMALL
GASTEIGER

@<TRIPOS>ATOM
      1 C          63.4697   89.2065   12.6503 C.ar    1  UNL1        0.1389
      2 C          63.1053   87.9008   12.0082 C.ar    1  UNL1        0.0396
      3 C          63.4183   86.6095   12.7043 C.ar    1  UNL1        0.0340
      4 C          63.0538   85.3038   12.0622 C.ar    1  UNL1        0.0520
      5 C          63.3668   84.0125   12.7583 C.ar    1  UNL1        0.0853
      6 C          64.0443   84.0269   14.0965 C.ar    1  UNL1        0.1045
      7 N          64.4088   85.3326   14.7386 N.ar    1  UNL1       -0.2436
      8 C          64.0958   86.6239   14.0425 C.ar    1  UNL1        0.0827
      9 C          64.4602   87.9296   14.6846 C.ar    1  UNL1        0.0223
     10 C          64.1472   89.2209   13.9885 C.ar    1  UNL1        0.0394
     11 C          64.5117   90.5266   14.6306 C.ar    1  UNL1        0.0526
     12 C          64.0470   91.0092   15.9726 C.ar    1  UNL1        0.1007
     13 C          63.1361   90.2710   16.9082 C.3     1  UNL1        0.0557
     14 N          64.6530   92.3598   16.2149 N.ar    1  UNL1       -0.0817
     15 O          65.4923   92.7119   15.0225 O.2     1  UNL1       -0.3581
     16 C          65.4049   91.5789   14.0434 C.ar    1  UNL1        0.1545
     17 C          66.0905   91.5103   12.7110 C.3     1  UNL1        0.0754
     18 C          63.0024   82.7068   12.1162 C.2     1  UNL1        0.2455
     19 N          62.1401   81.7241   12.8517 N.am    1  UNL1       -0.3252
     20 O          63.5001   82.3837   10.7386 O.2     1  UNL1       -0.2703
     21 H          61.8134   81.9362   13.7559 H       1  UNL1        0.1453
     22 H          61.9009   80.8671   12.4303 H       1  UNL1        0.1453
     23 C          62.8659   90.5053   10.4827 C.3     1  UNL1        0.2525
     24 O          63.1567   90.4978   11.9542 O.3     1  UNL1       -0.4714
     25 N          62.3763   85.2894   10.7240 N.pl3   1  UNL1       -0.3338
     26 H          62.5073   84.5277   10.1141 H       1  UNL1        0.1468
     27 C          61.4993   86.4355   10.3150 C.3     1  UNL1        0.0690
     28 C          61.5039   86.9132    8.8931 C.3     1  UNL1        0.0195
     29 C          60.6269   88.0593    8.4841 C.3     1  UNL1        0.0017
     30 C          59.7452   88.7277    9.4970 C.3     1  UNL1        0.0001
     31 C          59.7406   88.2499   10.9189 C.3     1  UNL1        0.0017
     32 C          60.6176   87.1038   11.3279 C.3     1  UNL1        0.0195
@<TRIPOS>BOND
     1    23    24    1
     2    24     1    1
     3     1     2   ar
     4     2     3   ar
     5     3     4   ar
     6     4    25    1
     7    25    27    1
     8    27    28    1
     9    28    29    1
    10    29    30    1
    11    30    31    1
    12    31    32    1
    13     4     5   ar
    14     5    18    1
    15    18    19   am
    16    18    20    2
    17     5     6   ar
    18     6     7   ar
    19     7     8   ar
    20     8     9   ar
    21     9    10   ar
    22    10    11    1
    23    11    12   ar
    24    12    13    1
    25    12    14   ar
    26    14    15   ar
    27    15    16   ar
    28    16    17    1
    29    10     1   ar
    30    16    11   ar
    31     8     3   ar
    32    32    27    1
    33    25    26    1
    34    19    21    1
    35    19    22    1
@<TRIPOS>MOLECULE
*****
 32 35 0 0 0
SMALL
GASTEIGER

@<TRIPOS>ATOM
      1 C          62.7110   90.3166   10.4318 C.ar    1  UNL1        0.1389
      2 C          63.6496   91.3127   11.0456 C.ar    1  UNL1        0.0396
      3 C          64.2782   91.0290   12.3776 C.ar    1  UNL1        0.0340
      4 C          65.2168   92.0251   12.9915 C.ar    1  UNL1        0.0520
      5 C          65.8454   91.7414   14.3235 C.ar    1  UNL1        0.0853
      6 C          65.5354   90.4615   15.0417 C.ar    1  UNL1        0.1045
      7 N          64.5968   89.4654   14.4279 N.ar    1  UNL1       -0.2436
      8 C          63.9682   89.7491   13.0959 C.ar    1  UNL1        0.0827
      9 C          63.0296   88.7530   12.4820 C.ar    1  UNL1        0.0223
     10 C          62.4010   89.0368   11.1500 C.ar    1  UNL1        0.0394
     11 C          61.4624   88.0406   10.5361 C.ar    1  UNL1        0.0526
     12 C          61.8247   86.9966    9.5219 C.ar    1  UNL1        0.1007
     13 C          63.1891   86.7654    8.9433 C.3     1  UNL1        0.0557
     14 N          60.5829   86.2244    9.1877 N.ar    1  UNL1       -0.0817
     15 O          59.4531   86.7911    9.9955 O.2     1  UNL1       -0.3581
     16 C          59.9967   87.9136   10.8289 C.ar    1  UNL1        0.1545
     17 C          59.2123   88.7604   11.7868 C.3     1  UNL1        0.0754
     18 C          66.7840   92.7375   14.9374 C.2     1  UNL1        0.2455
     19 N          66.5376   93.2417   16.3285 N.am    1  UNL1       -0.3252
     20 O          67.9689   93.2294   14.1602 O.2     1  UNL1       -0.2703
     21 H          65.7600   92.9189   16.8386 H       1  UNL1        0.1453
     22 H          67.1537   93.8955   16.7314 H       1  UNL1        0.1453
     23 C          60.6195   90.3434    8.8908 C.3     1  UNL1        0.2525
     24 O          62.0824   90.6004    9.0997 O.3     1  UNL1       -0.4714
     25 N          65.5268   93.3050   12.2733 N.pl3   1  UNL1       -0.3338
     26 H          65.1203   94.1495   12.5747 H       1  UNL1        0.1468
     27 C          66.4560   93.2982   11.0957 C.3     1  UNL1        0.0690
     28 C          66.4758   94.4616   10.1492 C.3     1  UNL1        0.0195
     29 C          67.4050   94.4548    8.9717 C.3     1  UNL1        0.0017
     30 C          68.3143   93.2845    8.7407 C.3     1  UNL1        0.0001
     31 C          68.2946   92.1210    9.6873 C.3     1  UNL1        0.0017
     32 C          67.3654   92.1278   10.8648 C.3     1  UNL1        0.0195
@<TRIPOS>BOND
     1    23    24    1
     2    24     1    1
     3     1     2   ar
     4     2     3   ar
     5     3     4   ar
     6     4    25    1
     7    25    27    1
     8    27    28    1
     9    28    29    1
    10    29    30    1
    11    30    31    1
    12    31    32    1
    13     4     5   ar
    14     5    18    1
    15    18    19   am
    16    18    20    2
    17     5     6   ar
    18     6     7   ar
    19     7     8   ar
    20     8     9   ar
    21     9    10   ar
    22    10    11    1
    23    11    12   ar
    24    12    13    1
    25    12    14   ar
    26    14    15   ar
    27    15    16   ar
    28    16    17    1
    29    10     1   ar
    30    16    11   ar
    31     8     3   ar
    32    32    27    1
    33    25    26    1
    34    19    21    1
    35    19    22    1
@<TRIPOS>MOLECULE
*****
 32 35 0 0 0
SMALL
GASTEIGER

@<TRIPOS>ATOM
      1 C          62.7192   90.3187   10.4419 C.ar    1  UNL1        0.1389
      2 C          63.6589   91.3136   11.0560 C.ar    1  UNL1        0.0396
      3 C          64.2904   91.0270   12.3860 C.ar    1  UNL1        0.0340
      4 C          65.2302   92.0219   13.0001 C.ar    1  UNL1        0.0520
      5 C          65.8617   91.7353   14.3301 C.ar    1  UNL1        0.0853
      6 C          65.5534   90.4537   15.0462 C.ar    1  UNL1        0.1045
      7 N          64.6137   89.4589   14.4321 N.ar    1  UNL1       -0.2436
      8 C          63.9822   89.7455   13.1021 C.ar    1  UNL1        0.0827
      9 C          63.0424   88.7506   12.4880 C.ar    1  UNL1        0.0223
     10 C          62.4109   89.0372   11.1580 C.ar    1  UNL1        0.0394
     11 C          61.4712   88.0423   10.5439 C.ar    1  UNL1        0.0526
     12 C          60.0000   87.9346   10.8161 C.ar    1  UNL1        0.1007
     13 C          59.2103   88.8028   11.7501 C.3     1  UNL1        0.0557
     14 N          59.4572   86.8061    9.9903 N.ar    1  UNL1       -0.0817
     15 O          60.5930   86.2164    9.2077 O.2     1  UNL1       -0.3581
     16 C          61.8376   86.9804    9.5499 C.ar    1  UNL1        0.1545
     17 C          63.2081   86.7270    8.9953 C.3     1  UNL1        0.0754
     18 C          66.8014   92.7302   14.9442 C.2     1  UNL1        0.2455
     19 N          66.5592   93.2297   16.3377 N.am    1  UNL1       -0.3252
     20 O          67.9834   93.2256   14.1648 O.2     1  UNL1       -0.2703
     21 H          65.7834   92.9045   16.8493 H       1  UNL1        0.1453
     22 H          67.1760   93.8827   16.7408 H       1  UNL1        0.1453
     23 C          60.6315   90.3180    8.8955 C.3     1  UNL1        0.2525
     24 O          62.0877   90.6053    9.1119 O.3     1  UNL1       -0.4714
     25 N          65.5384   93.3034   12.2841 N.pl3   1  UNL1       -0.3338
     26 H          65.1274   94.1462   12.5842 H       1  UNL1        0.1468
     27 C          66.4729   93.3009   11.1107 C.3     1  UNL1        0.0690
     28 C          66.4603   94.4439   10.1395 C.3     1  UNL1        0.0195
     29 C          67.3948   94.4414    8.9661 C.3     1  UNL1        0.0017
     30 C          68.3418   93.2960    8.7640 C.3     1  UNL1        0.0001
     31 C          68.3545   92.1529    9.7353 C.3     1  UNL1        0.0017
     32 C          67.4200   92.1554   10.9086 C.3     1  UNL1        0.0195
@<TRIPOS>BOND
     1    23    24    1
     2    24     1    1
     3     1     2   ar
     4     2     3   ar
     5     3     4   ar
     6     4    25    1
     7    25    27    1
     8    27    28    1
     9    28    29    1
    10    29    30    1
    11    30    31    1
    12    31    32    1
    13     4     5   ar
    14     5    18    1
    15    18    19   am
    16    18    20    2
    17     5     6   ar
    18     6     7   ar
    19     7     8   ar
    20     8     9   ar
    21     9    10   ar
    22    10    11    1
    23    11    12   ar
    24    12    13    1
    25    12    14   ar
    26    14    15   ar
    27    15    16   ar
    28    16    17    1
    29    10     1   ar
    30    16    11   ar
    31     8     3   ar
    32    32    27    1
    33    25    26    1
    34    19    21    1
    35    19    22    1
