@<TRIPOS>MOLECULE
*****
 51 57 0 0 0
SMALL
GASTEIGER

@<TRIPOS>ATOM
      1 C          59.8190   88.5330    8.1911 C.3     1  UNL1        0.1239
      2 C          59.1055   87.9603    7.0025 C.3     1  UNL1        0.0374
      3 C          58.9518   89.0510    5.9843 C.3     1  UNL1        0.0739
      4 N          59.5702   90.2978    6.5437 N.3     1  UNL1       -0.2638
      5 C          60.1061   89.9777    7.9076 C.3     1  UNL1        0.0913
      6 C          60.5022   88.8161    9.4962 C.2     1  UNL1        0.2357
      7 O          59.7364   88.7120   10.7817 O.2     1  UNL1       -0.2739
      8 N          61.9513   89.2032    9.5156 N.am    1  UNL1       -0.2864
      9 H          62.4539   89.2715    8.6719 H       1  UNL1        0.1546
     10 C          62.6345   89.4863   10.8207 C.2     1  UNL1        0.0320
     11 C          63.0041   90.8939   11.1839 C.2     1  UNL1        0.0122
     12 C          63.6873   91.1769   12.4889 C.2     1  UNL1        0.0216
     13 C          64.0010   90.0523   13.4307 C.2     1  UNL1        0.1008
     14 N          64.6626   90.0252   14.7767 N.2     1  UNL1       -0.1483
     15 N          64.7019   88.6008   15.2452 N.2     1  UNL1       -0.1482
     16 C          64.0646   87.7476   14.1889 C.2     1  UNL1        0.1022
     17 C          63.6314   88.6447   13.0674 C.2     1  UNL1        0.0223
     18 C          62.9482   88.3617   11.7624 C.3     1  UNL1        0.0706
     19 C          63.8910   86.2587   14.2442 C.ar    1  UNL1        0.0385
     20 C          63.4850   85.5047   13.0127 C.ar    1  UNL1        0.0079
     21 C          63.3113   84.0158   13.0680 C.ar    1  UNL1        0.0578
     22 C          63.5437   83.2809   14.3548 C.ar    1  UNL1        0.2247
     23 N          63.9497   84.0350   15.5863 N.ar    1  UNL1       -0.2101
     24 C          64.1234   85.5238   15.5310 C.ar    1  UNL1        0.1036
     25 O          63.3701   81.7920   14.4102 O.3     1  UNL1       -0.4640
     26 C          62.3688   81.1200   13.5181 C.3     1  UNL1        0.1678
     27 C          60.9734   80.8724   14.0096 C.3     1  UNL1        0.0473
     28 C          62.7629   80.6957   12.1344 C.3     1  UNL1        0.0473
     29 C          60.2168   85.9737    7.9871 C.3     1  UNL1        0.0696
     30 S          59.6746   87.1475    8.7475 S.3     1  UNL1       -0.1309
     31 C          59.6404   91.6307    5.8594 C.3     1  UNL1        0.1587
     32 C          58.9345   91.8409    4.5526 C.2     1  UNL1        0.2423
     33 O          57.4472   91.6661    4.4670 O.2     1  UNL1       -0.2733
     34 N          59.7160   92.2260    3.3316 N.am    1  UNL1       -0.2740
     35 C          59.0101   92.4363    2.0248 C.3     1  UNL1        0.1196
     36 C          59.7915   92.8213    0.8037 C.2     1  UNL1       -0.0089
     37 C          61.2788   92.9962    0.8893 C.2     1  UNL1       -0.0231
     38 C          61.9847   92.7859    2.1960 C.3     1  UNL1        0.0476
     39 C          61.2032   92.4009    3.4171 C.3     1  UNL1        0.0984
     40 C          62.0602   93.3813   -0.3318 C.ar    1  UNL1       -0.0042
     41 C          63.4358   93.9624   -0.1896 C.ar    1  UNL1       -0.0002
     42 C          64.2172   94.3475   -1.4107 C.ar    1  UNL1        0.0031
     43 C          63.6231   94.1514   -2.7740 C.ar    1  UNL1        0.0375
     44 C          62.2476   93.5703   -2.9162 C.ar    1  UNL1        0.0031
     45 C          61.4661   93.1852   -1.6951 C.ar    1  UNL1       -0.0002
     46 C          64.4045   94.5365   -3.9950 C.ar    1  UNL1        0.1832
     47 N          64.8082   95.9287   -4.3809 N.ar    1  UNL1       -0.2034
     48 C          65.5727   95.8496   -5.6690 C.ar    1  UNL1        0.1972
     49 N          65.6415   94.4085   -6.0794 N.ar    1  UNL1       -0.2281
     50 C          66.3142   93.8728   -7.3085 C.3     1  UNL1        0.1556
     51 N          64.9196   93.5969   -5.0449 N.ar    1  UNL1       -0.1484
@<TRIPOS>BOND
     1    29    30    1
     2     1    30    1
     3     1     6    1
     4     6     7    2
     5     6     8   am
     6     8    10    1
     7    10    11    2
     8    11    12    1
     9    12    13    2
    10    13    14    1
    11    14    15    2
    12    15    16    1
    13    16    19    1
    14    19    20   ar
    15    20    21   ar
    16    21    22   ar
    17    22    25    1
    18    25    26    1
    19    26    27    1
    20    26    28    1
    21    22    23   ar
    22    23    24   ar
    23    16    17    2
    24    17    18    1
    25     1     2    1
    26     2     3    1
    27     3     4    1
    28     4    31    1
    29    31    32    1
    30    32    33    2
    31    32    34   am
    32    34    35    1
    33    35    36    1
    34    36    37    2
    35    37    40    1
    36    40    41   ar
    37    41    42   ar
    38    42    43   ar
    39    43    46    1
    40    46    47   ar
    41    47    48   ar
    42    48    49   ar
    43    49    50    1
    44    49    51   ar
    45    43    44   ar
    46    44    45   ar
    47    37    38    1
    48    38    39    1
    49     4     5    1
    50     5     1    1
    51    18    10    1
    52    39    34    1
    53    17    13    1
    54    45    40   ar
    55    24    19   ar
    56    51    46   ar
    57     8     9    1
@<TRIPOS>MOLECULE
*****
 51 57 0 0 0
SMALL
GASTEIGER

@<TRIPOS>ATOM
      1 C          64.9727   92.3461   11.9224 C.3     1  UNL1        0.1239
      2 C          66.1325   93.2972   11.9067 C.3     1  UNL1        0.0374
      3 C          66.5358   93.5599   13.3274 C.3     1  UNL1        0.0739
      4 N          65.6252   92.7711   14.2211 N.3     1  UNL1       -0.2638
      5 C          64.6592   92.0210   13.3528 C.3     1  UNL1        0.0913
      6 C          63.8284   91.4226   11.6261 C.2     1  UNL1        0.2357
      7 O          62.7751   91.1762   12.6652 O.2     1  UNL1       -0.2739
      8 N          63.7374   90.7456   10.2907 N.am    1  UNL1       -0.2864
      9 H          64.4287   90.9074    9.6087 H       1  UNL1        0.1546
     10 C          62.5931   89.8221    9.9944 C.2     1  UNL1        0.0320
     11 C          62.3092   88.6638   10.9041 C.2     1  UNL1        0.0122
     12 C          61.1649   87.7403   10.6077 C.2     1  UNL1        0.0216
     13 C          60.3046   87.9753    9.4017 C.2     1  UNL1        0.1008
     14 N          59.1160   87.2392    8.8578 N.2     1  UNL1       -0.1483
     15 N          58.6654   87.9426    7.6120 N.2     1  UNL1       -0.1482
     16 C          59.5754   89.1135    7.3859 C.2     1  UNL1        0.1022
     17 C          60.5884   89.1336    8.4920 C.2     1  UNL1        0.0223
     18 C          61.7327   90.0570    8.7883 C.3     1  UNL1        0.0706
     19 C          59.4878   90.0923    6.2527 C.ar    1  UNL1        0.0385
     20 C          60.7293   90.5007    5.5166 C.ar    1  UNL1        0.0079
     21 C          60.6417   91.4795    4.3834 C.ar    1  UNL1        0.0578
     22 C          59.3125   92.0501    3.9863 C.ar    1  UNL1        0.2247
     23 N          58.0710   91.6417    4.7223 N.ar    1  UNL1       -0.2101
     24 C          58.1586   90.6629    5.8555 C.ar    1  UNL1        0.1036
     25 O          59.2249   93.0289    2.8530 O.3     1  UNL1       -0.4640
     26 C          60.2481   93.0005    1.7566 C.3     1  UNL1        0.1678
     27 C          59.9328   92.3276    0.4536 C.3     1  UNL1        0.0473
     28 C          61.5867   93.6450    1.9632 C.3     1  UNL1        0.0473
     29 C          66.1243   93.3130    9.8038 C.3     1  UNL1        0.0696
     30 S          65.0469   92.4782   10.4301 S.3     1  UNL1       -0.1309
     31 C          65.6724   92.7383   15.7200 C.3     1  UNL1        0.1587
     32 C          64.6953   91.8937   16.4828 C.2     1  UNL1        0.2423
     33 O          63.9865   92.4604   17.6771 O.2     1  UNL1       -0.2733
     34 N          64.4270   90.4823   16.0514 N.am    1  UNL1       -0.2740
     35 C          63.4499   89.6378   16.8142 C.3     1  UNL1        0.1196
     36 C          63.1816   88.2264   16.3828 C.2     1  UNL1       -0.0089
     37 C          63.8904   87.6596   15.1885 C.2     1  UNL1       -0.0231
     38 C          64.8675   88.5042   14.4257 C.3     1  UNL1        0.0476
     39 C          65.1358   89.9155   14.8571 C.3     1  UNL1        0.0984
     40 C          63.6221   86.2483   14.7571 C.ar    1  UNL1       -0.0042
     41 C          63.4500   85.1696   15.7851 C.ar    1  UNL1       -0.0002
     42 C          63.1817   83.7583   15.3537 C.ar    1  UNL1        0.0031
     43 C          63.0855   83.4256   13.8942 C.ar    1  UNL1        0.0375
     44 C          63.2575   84.5043   12.8662 C.ar    1  UNL1        0.0031
     45 C          63.5258   85.9157   13.2976 C.ar    1  UNL1       -0.0002
     46 C          62.8172   82.0143   13.4628 C.ar    1  UNL1        0.1832
     47 N          62.2652   80.9183   14.3255 N.ar    1  UNL1       -0.2034
     48 C          62.1607   79.6778   13.4887 C.ar    1  UNL1        0.1972
     49 N          62.6479   80.0070   12.1088 N.ar    1  UNL1       -0.2281
     50 C          62.7173   79.0588   10.9486 C.3     1  UNL1        0.1556
     51 N          63.0537   81.4511   12.0927 N.ar    1  UNL1       -0.1484
@<TRIPOS>BOND
     1    29    30    1
     2     1    30    1
     3     1     6    1
     4     6     7    2
     5     6     8   am
     6     8    10    1
     7    10    11    2
     8    11    12    1
     9    12    13    2
    10    13    14    1
    11    14    15    2
    12    15    16    1
    13    16    19    1
    14    19    20   ar
    15    20    21   ar
    16    21    22   ar
    17    22    25    1
    18    25    26    1
    19    26    27    1
    20    26    28    1
    21    22    23   ar
    22    23    24   ar
    23    16    17    2
    24    17    18    1
    25     1     2    1
    26     2     3    1
    27     3     4    1
    28     4    31    1
    29    31    32    1
    30    32    33    2
    31    32    34   am
    32    34    35    1
    33    35    36    1
    34    36    37    2
    35    37    40    1
    36    40    41   ar
    37    41    42   ar
    38    42    43   ar
    39    43    46    1
    40    46    47   ar
    41    47    48   ar
    42    48    49   ar
    43    49    50    1
    44    49    51   ar
    45    43    44   ar
    46    44    45   ar
    47    37    38    1
    48    38    39    1
    49     4     5    1
    50     5     1    1
    51    18    10    1
    52    39    34    1
    53    17    13    1
    54    45    40   ar
    55    24    19   ar
    56    51    46   ar
    57     8     9    1
@<TRIPOS>MOLECULE
*****
 51 57 0 0 0
SMALL
GASTEIGER

@<TRIPOS>ATOM
      1 C          61.3100   92.7619    2.2581 C.3     1  UNL1        0.1239
      2 C          62.1316   91.8972    3.1677 C.3     1  UNL1        0.0374
      3 C          61.3013   91.5736    4.3743 C.3     1  UNL1        0.0739
      4 N          59.9667   92.2383    4.2104 N.3     1  UNL1       -0.2638
      5 C          59.9720   92.9727    2.9026 C.3     1  UNL1        0.0913
      6 C          60.7434   93.6200    1.1660 C.2     1  UNL1        0.2357
      7 O          59.5049   94.4290    1.4141 O.2     1  UNL1       -0.2739
      8 N          61.4153   93.6691   -0.1742 N.am    1  UNL1       -0.2864
      9 H          62.2282   93.1382   -0.3370 H       1  UNL1        0.1546
     10 C          60.8487   94.5273   -1.2663 C.2     1  UNL1        0.0320
     11 C          61.3888   95.9084   -1.4915 C.2     1  UNL1        0.0122
     12 C          60.8222   96.7664   -2.5835 C.2     1  UNL1        0.0216
     13 C          59.7155   96.2433   -3.4504 C.2     1  UNL1        0.1008
     14 N          58.9636   96.8542   -4.5957 N.2     1  UNL1       -0.1483
     15 N          57.9587   95.8505   -5.0784 N.2     1  UNL1       -0.1482
     16 C          58.0896   94.6194   -4.2314 C.2     1  UNL1        0.1022
     17 C          59.1754   94.8622   -3.2253 C.2     1  UNL1        0.0223
     18 C          59.7420   94.0042   -2.1332 C.3     1  UNL1        0.0706
     19 C          57.2774   93.3657   -4.3667 C.ar    1  UNL1        0.0385
     20 C          56.7284   92.6920   -3.1440 C.ar    1  UNL1        0.0079
     21 C          55.9162   91.4383   -3.2794 C.ar    1  UNL1        0.0578
     22 C          55.6529   90.8581   -4.6373 C.ar    1  UNL1        0.2247
     23 N          56.2019   91.5317   -5.8599 N.ar    1  UNL1       -0.2101
     24 C          57.0141   92.7855   -5.7246 C.ar    1  UNL1        0.1036
     25 O          54.8407   89.6043   -4.7726 O.3     1  UNL1       -0.4640
     26 C          53.7641   89.5168   -5.8135 C.3     1  UNL1        0.1678
     27 C          52.3865   89.0628   -5.4313 C.3     1  UNL1        0.0473
     28 C          54.0652   89.8832   -7.2365 C.3     1  UNL1        0.0473
     29 C          63.8956   92.7570    2.0042 C.3     1  UNL1        0.0696
     30 S          62.5295   92.7305    1.3853 S.3     1  UNL1       -0.1309
     31 C          58.8268   92.1790    5.1836 C.3     1  UNL1        0.1587
     32 C          58.1928   90.8609    5.5167 C.2     1  UNL1        0.2423
     33 O          56.8748   90.4870    4.9060 O.2     1  UNL1       -0.2733
     34 N          58.8769   89.9169    6.4605 N.am    1  UNL1       -0.2740
     35 C          58.2429   88.5989    6.7936 C.3     1  UNL1        0.1196
     36 C          58.9270   87.6548    7.7374 C.2     1  UNL1       -0.0089
     37 C          60.2450   88.0286    8.3481 C.2     1  UNL1       -0.0231
     38 C          60.8789   89.3466    8.0150 C.3     1  UNL1        0.0476
     39 C          60.1949   90.2907    7.0712 C.3     1  UNL1        0.0984
     40 C          60.9290   87.0846    9.2919 C.ar    1  UNL1       -0.0042
     41 C          60.6275   87.1423   10.7602 C.ar    1  UNL1       -0.0002
     42 C          61.3115   86.1982   11.7040 C.ar    1  UNL1        0.0031
     43 C          62.2971   85.1964   11.1795 C.ar    1  UNL1        0.0375
     44 C          62.5986   85.1387    9.7113 C.ar    1  UNL1        0.0031
     45 C          61.9146   86.0828    8.7675 C.ar    1  UNL1       -0.0002
     46 C          62.9812   84.2523   12.1233 C.ar    1  UNL1        0.1832
     47 N          64.1239   84.5901   13.0344 N.ar    1  UNL1       -0.2034
     48 C          64.4915   83.3512   13.7959 C.ar    1  UNL1        0.1972
     49 N          63.5761   82.2476   13.3555 N.ar    1  UNL1       -0.2281
     50 C          63.5913   80.8351   13.8601 C.3     1  UNL1        0.1556
     51 N          62.6426   82.8045   12.3217 N.ar    1  UNL1       -0.1484
@<TRIPOS>BOND
     1    29    30    1
     2     1    30    1
     3     1     6    1
     4     6     7    2
     5     6     8   am
     6     8    10    1
     7    10    11    2
     8    11    12    1
     9    12    13    2
    10    13    14    1
    11    14    15    2
    12    15    16    1
    13    16    19    1
    14    19    20   ar
    15    20    21   ar
    16    21    22   ar
    17    22    25    1
    18    25    26    1
    19    26    27    1
    20    26    28    1
    21    22    23   ar
    22    23    24   ar
    23    16    17    2
    24    17    18    1
    25     1     2    1
    26     2     3    1
    27     3     4    1
    28     4    31    1
    29    31    32    1
    30    32    33    2
    31    32    34   am
    32    34    35    1
    33    35    36    1
    34    36    37    2
    35    37    40    1
    36    40    41   ar
    37    41    42   ar
    38    42    43   ar
    39    43    46    1
    40    46    47   ar
    41    47    48   ar
    42    48    49   ar
    43    49    50    1
    44    49    51   ar
    45    43    44   ar
    46    44    45   ar
    47    37    38    1
    48    38    39    1
    49     4     5    1
    50     5     1    1
    51    18    10    1
    52    39    34    1
    53    17    13    1
    54    45    40   ar
    55    24    19   ar
    56    51    46   ar
    57     8     9    1
@<TRIPOS>MOLECULE
*****
 51 57 0 0 0
SMALL
GASTEIGER

@<TRIPOS>ATOM
      1 C          59.8906   88.1854    8.4330 C.3     1  UNL1        0.1239
      2 C          59.1197   87.4700    7.3634 C.3     1  UNL1        0.0374
      3 C          58.8840   88.4339    6.2386 C.3     1  UNL1        0.0739
      4 N          59.5092   89.7450    6.6130 N.3     1  UNL1       -0.2638
      5 C          60.1314   89.5914    7.9691 C.3     1  UNL1        0.0913
      6 C          60.6442   88.6261    9.6529 C.2     1  UNL1        0.2357
      7 O          60.0982   88.3317   11.0186 O.2     1  UNL1       -0.2739
      8 N          61.9436   89.3610    9.5069 N.am    1  UNL1       -0.2864
      9 H          62.3019   89.5541    8.6105 H       1  UNL1        0.1546
     10 C          62.6972   89.8016   10.7268 C.2     1  UNL1        0.0320
     11 C          63.1523   91.2252   10.8536 C.2     1  UNL1        0.0122
     12 C          63.9059   91.6658   12.0735 C.2     1  UNL1        0.0216
     13 C          64.2042   90.6828   13.1665 C.2     1  UNL1        0.1008
     14 N          64.9225   90.8250   14.4757 N.2     1  UNL1       -0.1483
     15 N          64.9111   89.4892   15.1580 N.2     1  UNL1       -0.1482
     16 C          64.1859   88.5215   14.2705 C.2     1  UNL1        0.1022
     17 C          63.7490   89.2592   13.0397 C.2     1  UNL1        0.0223
     18 C          62.9955   88.8186   11.8198 C.3     1  UNL1        0.0706
     19 C          63.9406   87.0708   14.5625 C.ar    1  UNL1        0.0385
     20 C          63.7787   86.6080   15.9801 C.ar    1  UNL1        0.0079
     21 C          63.5334   85.1573   16.2721 C.ar    1  UNL1        0.0578
     22 C          63.4501   84.1693   15.1465 C.ar    1  UNL1        0.2247
     23 N          63.6121   84.6321   13.7289 N.ar    1  UNL1       -0.2101
     24 C          63.8573   86.0828   13.4369 C.ar    1  UNL1        0.1036
     25 O          63.2048   82.7186   15.4385 O.3     1  UNL1       -0.4640
     26 C          62.8175   81.7854   14.3298 C.3     1  UNL1        0.1678
     27 C          61.4016   81.3038   14.2151 C.3     1  UNL1        0.0473
     28 C          63.8462   81.3339   13.3359 C.3     1  UNL1        0.0473
     29 C          60.8885   85.8477    8.9705 C.3     1  UNL1        0.0696
     30 S          59.8074   86.8715    9.1518 S.3     1  UNL1       -0.1309
     31 C          59.5119   90.9909    5.7777 C.3     1  UNL1        0.1587
     32 C          60.6831   91.2979    4.8923 C.2     1  UNL1        0.2423
     33 O          62.0743   90.9729    5.3494 O.2     1  UNL1       -0.2733
     34 N          60.4632   91.9297    3.5498 N.am    1  UNL1       -0.2740
     35 C          61.6345   92.2367    2.6644 C.3     1  UNL1        0.1196
     36 C          61.4146   92.8685    1.3219 C.2     1  UNL1       -0.0089
     37 C          60.0234   93.1935    0.8647 C.2     1  UNL1       -0.0231
     38 C          58.8522   92.8866    1.7501 C.3     1  UNL1        0.0476
     39 C          59.0721   92.2547    3.0927 C.3     1  UNL1        0.0984
     40 C          59.8035   93.8254   -0.4778 C.ar    1  UNL1       -0.0042
     41 C          58.7985   94.9282   -0.6321 C.ar    1  UNL1       -0.0002
     42 C          58.5785   95.5601   -1.9746 C.ar    1  UNL1        0.0031
     43 C          59.3636   95.0892   -3.1628 C.ar    1  UNL1        0.0375
     44 C          60.3687   93.9864   -3.0085 C.ar    1  UNL1        0.0031
     45 C          60.5886   93.3545   -1.6660 C.ar    1  UNL1       -0.0002
     46 C          59.1437   95.7211   -4.5053 C.ar    1  UNL1        0.1832
     47 N          60.1977   96.3518   -5.3663 N.ar    1  UNL1       -0.2034
     48 C          59.5366   96.8537   -6.6156 C.ar    1  UNL1        0.1972
     49 N          58.0739   96.5332   -6.5269 N.ar    1  UNL1       -0.2281
     50 C          57.0362   96.8560   -7.5608 C.3     1  UNL1        0.1556
     51 N          57.8310   95.8332   -5.2226 N.ar    1  UNL1       -0.1484
@<TRIPOS>BOND
     1    29    30    1
     2     1    30    1
     3     1     6    1
     4     6     7    2
     5     6     8   am
     6     8    10    1
     7    10    11    2
     8    11    12    1
     9    12    13    2
    10    13    14    1
    11    14    15    2
    12    15    16    1
    13    16    19    1
    14    19    20   ar
    15    20    21   ar
    16    21    22   ar
    17    22    25    1
    18    25    26    1
    19    26    27    1
    20    26    28    1
    21    22    23   ar
    22    23    24   ar
    23    16    17    2
    24    17    18    1
    25     1     2    1
    26     2     3    1
    27     3     4    1
    28     4    31    1
    29    31    32    1
    30    32    33    2
    31    32    34   am
    32    34    35    1
    33    35    36    1
    34    36    37    2
    35    37    40    1
    36    40    41   ar
    37    41    42   ar
    38    42    43   ar
    39    43    46    1
    40    46    47   ar
    41    47    48   ar
    42    48    49   ar
    43    49    50    1
    44    49    51   ar
    45    43    44   ar
    46    44    45   ar
    47    37    38    1
    48    38    39    1
    49     4     5    1
    50     5     1    1
    51    18    10    1
    52    39    34    1
    53    17    13    1
    54    45    40   ar
    55    24    19   ar
    56    51    46   ar
    57     8     9    1
@<TRIPOS>MOLECULE
*****
 51 57 0 0 0
SMALL
GASTEIGER

@<TRIPOS>ATOM
      1 C          59.9694   88.9771    7.8926 C.3     1  UNL1        0.1239
      2 C          59.2508   88.4095    6.7045 C.3     1  UNL1        0.0374
      3 C          59.3891   89.3822    5.5711 C.3     1  UNL1        0.0739
      4 N          60.1931   90.5508    6.0587 N.3     1  UNL1       -0.2638
      5 C          60.5517   90.3005    7.4934 C.3     1  UNL1        0.0913
      6 C          60.5934   89.2812    9.2223 C.2     1  UNL1        0.2357
      7 O          59.7533   89.8302   10.3371 O.2     1  UNL1       -0.2739
      8 N          62.0576   89.0364    9.4372 N.am    1  UNL1       -0.2864
      9 H          62.6090   88.6761    8.7055 H       1  UNL1        0.1546
     10 C          62.6817   89.3406   10.7669 C.2     1  UNL1        0.0320
     11 C          63.0125   90.7569   11.1338 C.2     1  UNL1        0.0122
     12 C          63.6366   91.0609   12.4634 C.2     1  UNL1        0.0216
     13 C          63.9298   89.9487   13.4262 C.2     1  UNL1        0.1008
     14 N          64.5358   89.9427   14.7984 N.2     1  UNL1       -0.1483
     15 N          64.5795   88.5227   15.2796 N.2     1  UNL1       -0.1482
     16 C          64.0005   87.6511   14.2048 C.2     1  UNL1        0.1022
     17 C          63.5991   88.5324   13.0594 C.2     1  UNL1        0.0223
     18 C          62.9750   88.2283   11.7297 C.3     1  UNL1        0.0706
     19 C          63.8496   86.1599   14.2648 C.ar    1  UNL1        0.0385
     20 C          63.2297   85.4219   13.1154 C.ar    1  UNL1        0.0079
     21 C          63.0788   83.9307   13.1755 C.ar    1  UNL1        0.0578
     22 C          63.5476   83.1775   14.3849 C.ar    1  UNL1        0.2247
     23 N          64.1675   83.9155   15.5343 N.ar    1  UNL1       -0.2101
     24 C          64.3184   85.4067   15.4743 C.ar    1  UNL1        0.1036
     25 O          63.3967   81.6863   14.4450 O.3     1  UNL1       -0.4640
     26 C          62.3789   81.0002   13.5828 C.3     1  UNL1        0.1678
     27 C          60.9874   80.7783   14.0972 C.3     1  UNL1        0.0473
     28 C          62.7526   80.5360   12.2064 C.3     1  UNL1        0.0473
     29 C          58.6912   86.7164    7.8178 C.3     1  UNL1        0.0696
     30 S          59.5175   87.7172    8.5698 S.3     1  UNL1       -0.1309
     31 C          60.5720   91.7579    5.2529 C.3     1  UNL1        0.1587
     32 C          61.4004   91.6017    4.0122 C.2     1  UNL1        0.2423
     33 O          62.7348   90.9203    4.0822 O.2     1  UNL1       -0.2733
     34 N          60.8943   92.1269    2.7014 N.am    1  UNL1       -0.2740
     35 C          61.7227   91.9706    1.4607 C.3     1  UNL1        0.1196
     36 C          61.2167   92.4958    0.1499 C.2     1  UNL1       -0.0089
     37 C          59.8823   93.1772    0.0798 C.2     1  UNL1       -0.0231
     38 C          59.0538   93.3334    1.3205 C.3     1  UNL1        0.0476
     39 C          59.5599   92.8082    2.6313 C.3     1  UNL1        0.0984
     40 C          59.3762   93.7023   -1.2310 C.ar    1  UNL1       -0.0042
     41 C          58.3655   92.9174   -2.0135 C.ar    1  UNL1       -0.0002
     42 C          57.8594   93.4426   -3.3243 C.ar    1  UNL1        0.0031
     43 C          58.3641   94.7526   -3.8525 C.ar    1  UNL1        0.0375
     44 C          59.3748   95.5375   -3.0699 C.ar    1  UNL1        0.0031
     45 C          59.8809   95.0124   -1.7592 C.ar    1  UNL1       -0.0002
     46 C          57.8581   95.2778   -5.1633 C.ar    1  UNL1        0.1832
     47 N          58.6291   95.3307   -6.4488 N.ar    1  UNL1       -0.2034
     48 C          57.7397   95.9278   -7.4987 C.ar    1  UNL1        0.1972
     49 N          56.4188   96.2440   -6.8621 N.ar    1  UNL1       -0.2281
     50 C          55.2330   96.8548   -7.5482 C.3     1  UNL1        0.1556
     51 N          56.4919   95.8423   -5.4187 N.ar    1  UNL1       -0.1484
@<TRIPOS>BOND
     1    29    30    1
     2     1    30    1
     3     1     6    1
     4     6     7    2
     5     6     8   am
     6     8    10    1
     7    10    11    2
     8    11    12    1
     9    12    13    2
    10    13    14    1
    11    14    15    2
    12    15    16    1
    13    16    19    1
    14    19    20   ar
    15    20    21   ar
    16    21    22   ar
    17    22    25    1
    18    25    26    1
    19    26    27    1
    20    26    28    1
    21    22    23   ar
    22    23    24   ar
    23    16    17    2
    24    17    18    1
    25     1     2    1
    26     2     3    1
    27     3     4    1
    28     4    31    1
    29    31    32    1
    30    32    33    2
    31    32    34   am
    32    34    35    1
    33    35    36    1
    34    36    37    2
    35    37    40    1
    36    40    41   ar
    37    41    42   ar
    38    42    43   ar
    39    43    46    1
    40    46    47   ar
    41    47    48   ar
    42    48    49   ar
    43    49    50    1
    44    49    51   ar
    45    43    44   ar
    46    44    45   ar
    47    37    38    1
    48    38    39    1
    49     4     5    1
    50     5     1    1
    51    18    10    1
    52    39    34    1
    53    17    13    1
    54    45    40   ar
    55    24    19   ar
    56    51    46   ar
    57     8     9    1
