@<TRIPOS>MOLECULE
*****
 32 35 0 0 0
SMALL
GASTEIGER

@<TRIPOS>ATOM
      1 C          62.5749   87.8739   11.9431 C.ar    1  UNL1        0.1511
      2 C          63.5256   88.2638   13.0358 C.ar    1  UNL1        0.0688
      3 C          64.1481   89.6286   13.0368 C.ar    1  UNL1        0.1620
      4 F          65.0988   90.0185   14.1294 F       1  UNL1       -0.2026
      5 C          63.8198   90.6034   11.9449 C.ar    1  UNL1        0.1535
      6 C          62.8691   90.2134   10.8522 C.ar    1  UNL1        0.0369
      7 C          62.2466   88.8486   10.8513 C.ar    1  UNL1        0.0930
      8 CL         61.2958   88.4587    9.7586 Cl      1  UNL1       -0.0790
      9 S          64.4423   91.9681   11.9458 S.O2    1  UNL1        0.0769
     10 O          64.4454   91.9677   10.4458 O.2     1  UNL1       -0.1498
     11 O          64.4391   91.9685   13.4458 O.2     1  UNL1       -0.1498
     12 N          65.0647   93.3329   11.9468 N.pl3   1  UNL1       -0.1987
     13 H          64.7075   94.0364   12.5355 H       1  UNL1        0.1753
     14 C          66.2315   93.6256   11.0507 C.ar    1  UNL1        0.1503
     15 C          66.3155   94.9407   10.3341 C.ar    1  UNL1        0.0563
     16 C          67.4822   95.2333    9.4380 C.ar    1  UNL1        0.1036
     17 N          68.5651   94.2110    9.2586 N.ar    1  UNL1       -0.2223
     18 C          68.4812   92.8959    9.9752 C.ar    1  UNL1        0.2001
     19 N          67.3144   92.6032   10.8712 N.ar    1  UNL1       -0.2077
     20 O          61.9524   86.5091   11.9422 O.3     1  UNL1       -0.4779
     21 C          63.3613   84.3401   12.1885 C.3     1  UNL1        0.0799
     22 C          64.0875   83.1850   11.5653 C.3     1  UNL1        0.0095
     23 C          64.1310   83.0438   10.0727 C.3     1  UNL1        0.0006
     24 C          63.4483   84.0576    9.2031 C.3     1  UNL1        0.0037
     25 C          62.7221   85.2127    9.8263 C.3     1  UNL1        0.0439
     26 C          62.6786   85.3540   11.3189 C.3     1  UNL1        0.1713
     27 C          61.7973   82.3600   14.2580 C.3     1  UNL1        0.1533
     28 N          62.5989   83.5713   14.6324 N.ar    1  UNL1       -0.2527
     29 N          62.8223   84.0851   16.0238 N.ar    1  UNL1       -0.1679
     30 C          63.6793   85.3128   15.9326 C.ar    1  UNL1        0.1213
     31 C          63.9855   85.5578   14.4848 C.ar    1  UNL1        0.0369
     32 C          63.3178   84.4814   13.6812 C.ar    1  UNL1        0.0603
@<TRIPOS>BOND
     1    27    28    1
     2    28    29   ar
     3    29    30   ar
     4    30    31   ar
     5    31    32   ar
     6    21    32    1
     7    21    22    1
     8    22    23    1
     9    23    24    1
    10    24    25    1
    11    25    26    1
    12    26    20    1
    13    20     1    1
    14     1     2   ar
    15     2     3   ar
    16     3     4    1
    17     3     5   ar
    18     5     9    1
    19     9    10    2
    20     9    11    2
    21     9    12    1
    22    12    14    1
    23    14    15   ar
    24    15    16   ar
    25    16    17   ar
    26    17    18   ar
    27    18    19   ar
    28     5     6   ar
    29     6     7   ar
    30     7     8    1
    31    32    28   ar
    32    26    21    1
    33     7     1   ar
    34    19    14   ar
    35    12    13    1
@<TRIPOS>MOLECULE
*****
 32 35 0 0 0
SMALL
GASTEIGER

@<TRIPOS>ATOM
      1 C          63.9747   88.6915   14.9414 C.ar    1  UNL1        0.1511
      2 C          64.1908   87.7700   13.7777 C.ar    1  UNL1        0.0688
      3 C          63.8840   86.3078   13.9118 C.ar    1  UNL1        0.1620
      4 F          64.1000   85.3863   12.7482 F       1  UNL1       -0.2026
      5 C          63.3612   85.7672   15.2097 C.ar    1  UNL1        0.1535
      6 C          63.1452   86.6886   16.3734 C.ar    1  UNL1        0.0369
      7 C          63.4520   88.1508   16.2392 C.ar    1  UNL1        0.0930
      8 CL         63.2360   89.0723   17.4030 Cl      1  UNL1       -0.0790
      9 S          63.0545   84.3050   15.3439 S.O2    1  UNL1        0.0769
     10 O          61.5877   84.6039   15.2473 O.2     1  UNL1       -0.1498
     11 O          64.5212   84.0061   15.4404 O.2     1  UNL1       -0.1498
     12 N          62.7477   82.8428   15.4780 N.pl3   1  UNL1       -0.1987
     13 H          62.5558   82.4594   16.3642 H       1  UNL1        0.1753
     14 C          62.7333   81.9649   14.2618 C.ar    1  UNL1        0.1503
     15 C          63.0009   82.5538   12.9085 C.ar    1  UNL1        0.0563
     16 C          62.9865   81.6758   11.6924 C.ar    1  UNL1        0.1036
     17 N          62.7045   80.2090   11.8296 N.ar    1  UNL1       -0.2223
     18 C          62.4369   79.6201   13.1830 C.ar    1  UNL1        0.2001
     19 N          62.4513   80.4980   14.3991 N.ar    1  UNL1       -0.2077
     20 O          64.2815   90.1536   14.8073 O.3     1  UNL1       -0.4779
     21 C          65.3559   91.7998   13.1085 C.3     1  UNL1        0.0799
     22 C          65.3701   92.4419   11.7529 C.3     1  UNL1        0.0095
     23 C          64.3241   92.0798   10.7406 C.3     1  UNL1        0.0006
     24 C          63.2640   91.0757   11.0838 C.3     1  UNL1        0.0037
     25 C          63.2498   90.4336   12.4393 C.3     1  UNL1        0.0439
     26 C          64.2957   90.7957   13.4517 C.3     1  UNL1        0.1713
     27 C          68.5856   91.6060   12.6832 C.3     1  UNL1        0.1533
     28 N          67.8864   92.0728   13.9254 N.ar    1  UNL1       -0.2527
     29 N          68.5489   92.5324   15.1902 N.ar    1  UNL1       -0.1679
     30 C          67.4738   92.9056   16.1675 C.ar    1  UNL1        0.1213
     31 C          66.1469   92.6766   15.5066 C.ar    1  UNL1        0.0369
     32 C          66.4018   92.1619   14.1209 C.ar    1  UNL1        0.0603
@<TRIPOS>BOND
     1    27    28    1
     2    28    29   ar
     3    29    30   ar
     4    30    31   ar
     5    31    32   ar
     6    21    32    1
     7    21    22    1
     8    22    23    1
     9    23    24    1
    10    24    25    1
    11    25    26    1
    12    26    20    1
    13    20     1    1
    14     1     2   ar
    15     2     3   ar
    16     3     4    1
    17     3     5   ar
    18     5     9    1
    19     9    10    2
    20     9    11    2
    21     9    12    1
    22    12    14    1
    23    14    15   ar
    24    15    16   ar
    25    16    17   ar
    26    17    18   ar
    27    18    19   ar
    28     5     6   ar
    29     6     7   ar
    30     7     8    1
    31    32    28   ar
    32    26    21    1
    33     7     1   ar
    34    19    14   ar
    35    12    13    1
@<TRIPOS>MOLECULE
*****
 32 35 0 0 0
SMALL
GASTEIGER

@<TRIPOS>ATOM
      1 C          62.5633   87.7020   12.0374 C.ar    1  UNL1        0.1511
      2 C          63.4744   87.8845   13.2150 C.ar    1  UNL1        0.0688
      3 C          64.1577   89.2011   13.4376 C.ar    1  UNL1        0.1620
      4 F          65.0688   89.3837   14.6151 F       1  UNL1       -0.2026
      5 C          63.9300   90.3352   12.4825 C.ar    1  UNL1        0.1535
      6 C          63.0189   90.1527   11.3050 C.ar    1  UNL1        0.0369
      7 C          62.3355   88.8360   11.0824 C.ar    1  UNL1        0.0930
      8 CL         61.4244   88.6535    9.9049 Cl      1  UNL1       -0.0790
      9 S          64.6133   91.6519   12.7051 S.O2    1  UNL1        0.0769
     10 O          65.0513   91.6670   11.2705 O.2     1  UNL1       -0.1498
     11 O          64.1754   91.6367   14.1396 O.2     1  UNL1       -0.1498
     12 N          65.2967   92.9685   12.9276 N.pl3   1  UNL1       -0.1987
     13 H          64.8794   93.8002   12.6060 H       1  UNL1        0.1753
     14 C          66.6158   93.0179   13.6402 C.ar    1  UNL1        0.1503
     15 C          66.7582   93.8197   14.8998 C.ar    1  UNL1        0.0563
     16 C          68.0772   93.8691   15.6123 C.ar    1  UNL1        0.1036
     17 N          69.2538   93.1166   15.0651 N.ar    1  UNL1       -0.2223
     18 C          69.1114   92.3147   13.8055 C.ar    1  UNL1        0.2001
     19 N          67.7924   92.2654   13.0930 N.ar    1  UNL1       -0.2077
     20 O          61.8799   86.3854   11.8149 O.3     1  UNL1       -0.4779
     21 C          63.2681   84.1971   12.0006 C.3     1  UNL1        0.0799
     22 C          64.0086   83.0690   11.3458 C.3     1  UNL1        0.0095
     23 C          64.1017   83.0010    9.8502 C.3     1  UNL1        0.0006
     24 C          63.4541   84.0612    9.0095 C.3     1  UNL1        0.0037
     25 C          62.7135   85.1893    9.6644 C.3     1  UNL1        0.0439
     26 C          62.6205   85.2572   11.1599 C.3     1  UNL1        0.1713
     27 C          61.7248   82.0611   13.9257 C.3     1  UNL1        0.1533
     28 N          62.4657   83.2833   14.3810 N.ar    1  UNL1       -0.2527
     29 N          62.6272   83.7382   15.8012 N.ar    1  UNL1       -0.1679
     30 C          63.4365   85.0013   15.7941 C.ar    1  UNL1        0.1213
     31 C          63.7750   85.3268   14.3696 C.ar    1  UNL1        0.0369
     32 C          63.1750   84.2651   13.4962 C.ar    1  UNL1        0.0603
@<TRIPOS>BOND
     1    27    28    1
     2    28    29   ar
     3    29    30   ar
     4    30    31   ar
     5    31    32   ar
     6    21    32    1
     7    21    22    1
     8    22    23    1
     9    23    24    1
    10    24    25    1
    11    25    26    1
    12    26    20    1
    13    20     1    1
    14     1     2   ar
    15     2     3   ar
    16     3     4    1
    17     3     5   ar
    18     5     9    1
    19     9    10    2
    20     9    11    2
    21     9    12    1
    22    12    14    1
    23    14    15   ar
    24    15    16   ar
    25    16    17   ar
    26    17    18   ar
    27    18    19   ar
    28     5     6   ar
    29     6     7   ar
    30     7     8    1
    31    32    28   ar
    32    26    21    1
    33     7     1   ar
    34    19    14   ar
    35    12    13    1
@<TRIPOS>MOLECULE
*****
 32 35 0 0 0
SMALL
GASTEIGER

@<TRIPOS>ATOM
      1 C          63.0589   88.3436   12.2994 C.ar    1  UNL1        0.1511
      2 C          62.7736   89.3077   11.1861 C.ar    1  UNL1        0.0688
      3 C          63.4086   90.6666   11.1897 C.ar    1  UNL1        0.1620
      4 F          63.1234   91.6307   10.0766 F       1  UNL1       -0.2026
      5 C          64.3289   91.0615   12.3066 C.ar    1  UNL1        0.1535
      6 C          64.6141   90.0974   13.4197 C.ar    1  UNL1        0.0369
      7 C          63.9791   88.7385   13.4162 C.ar    1  UNL1        0.0930
      8 CL         64.2644   87.7744   14.5294 Cl      1  UNL1       -0.0790
      9 S          64.9639   92.4205   12.3102 S.O2    1  UNL1        0.0769
     10 O          64.9640   92.4244   10.8102 O.2     1  UNL1       -0.1498
     11 O          64.9639   92.4165   13.8102 O.2     1  UNL1       -0.1498
     12 N          65.5989   93.7794   12.3138 N.pl3   1  UNL1       -0.1987
     13 H          65.5777   94.3305   13.1293 H       1  UNL1        0.1753
     14 C          66.2664   94.2986   11.0748 C.ar    1  UNL1        0.1503
     15 C          65.7416   95.5315   10.4007 C.ar    1  UNL1        0.0563
     16 C          66.4090   96.0507    9.1618 C.ar    1  UNL1        0.1036
     17 N          67.6013   95.3370    8.5970 N.ar    1  UNL1       -0.2223
     18 C          68.1262   94.1041    9.2711 C.ar    1  UNL1        0.2001
     19 N          67.4587   93.5849   10.5100 N.ar    1  UNL1       -0.2077
     20 O          62.4239   86.9847   12.2958 O.3     1  UNL1       -0.4779
     21 C          63.1997   84.6535   11.4508 C.3     1  UNL1        0.0799
     22 C          63.4663   83.7041   10.3206 C.3     1  UNL1        0.0095
     23 C          63.2236   84.1365    8.9049 C.3     1  UNL1        0.0006
     24 C          62.7143   85.5182    8.6195 C.3     1  UNL1        0.0037
     25 C          62.4477   86.4676    9.7498 C.3     1  UNL1        0.0439
     26 C          62.6904   86.0352   11.1654 C.3     1  UNL1        0.1713
     27 C          62.1138   81.9020   12.8293 C.3     1  UNL1        0.1533
     28 N          62.9433   82.9565   13.5001 N.ar    1  UNL1       -0.2527
     29 N          63.4192   82.9314   14.9224 N.ar    1  UNL1       -0.1679
     30 C          64.2125   84.1806   15.1679 C.ar    1  UNL1        0.1213
     31 C          64.2268   84.9777   13.8973 C.ar    1  UNL1        0.0369
     32 C          63.4424   84.2212   12.8666 C.ar    1  UNL1        0.0603
@<TRIPOS>BOND
     1    27    28    1
     2    28    29   ar
     3    29    30   ar
     4    30    31   ar
     5    31    32   ar
     6    21    32    1
     7    21    22    1
     8    22    23    1
     9    23    24    1
    10    24    25    1
    11    25    26    1
    12    26    20    1
    13    20     1    1
    14     1     2   ar
    15     2     3   ar
    16     3     4    1
    17     3     5   ar
    18     5     9    1
    19     9    10    2
    20     9    11    2
    21     9    12    1
    22    12    14    1
    23    14    15   ar
    24    15    16   ar
    25    16    17   ar
    26    17    18   ar
    27    18    19   ar
    28     5     6   ar
    29     6     7   ar
    30     7     8    1
    31    32    28   ar
    32    26    21    1
    33     7     1   ar
    34    19    14   ar
    35    12    13    1
@<TRIPOS>MOLECULE
*****
 32 35 0 0 0
SMALL
GASTEIGER

@<TRIPOS>ATOM
      1 C          64.1759   90.8648   12.8972 C.ar    1  UNL1        0.1511
      2 C          64.3484   89.7868   13.9260 C.ar    1  UNL1        0.0688
      3 C          63.8093   88.4110   13.6683 C.ar    1  UNL1        0.1620
      4 F          63.9818   87.3330   14.6970 F       1  UNL1       -0.2026
      5 C          63.0978   88.1130   12.3818 C.ar    1  UNL1        0.1535
      6 C          62.9254   89.1909   11.3530 C.ar    1  UNL1        0.0369
      7 C          63.4644   90.5668   11.6107 C.ar    1  UNL1        0.0930
      8 CL         63.2919   91.6447   10.5819 Cl      1  UNL1       -0.0790
      9 S          62.5588   86.7372   12.1241 S.O2    1  UNL1        0.0769
     10 O          63.8371   86.1408   12.6342 O.2     1  UNL1       -0.1498
     11 O          61.2805   87.3335   11.6139 O.2     1  UNL1       -0.1498
     12 N          62.0197   85.3613   11.8664 N.pl3   1  UNL1       -0.1987
     13 H          61.4224   85.2022   11.1001 H       1  UNL1        0.1753
     14 C          62.3909   84.2278   12.7761 C.ar    1  UNL1        0.1503
     15 C          62.8275   82.9144   12.1981 C.ar    1  UNL1        0.0563
     16 C          63.1987   81.7810   13.1079 C.ar    1  UNL1        0.1036
     17 N          63.1331   81.9611   14.5956 N.ar    1  UNL1       -0.2223
     18 C          62.6964   83.2745   15.1736 C.ar    1  UNL1        0.2001
     19 N          62.3253   84.4079   14.2638 N.ar    1  UNL1       -0.2077
     20 O          64.7149   92.2406   13.1549 O.3     1  UNL1       -0.4779
     21 C          67.2673   92.6409   13.4297 C.3     1  UNL1        0.0799
     22 C          68.4659   92.8235   14.3128 C.3     1  UNL1        0.0095
     23 C          68.3108   92.7885   15.8043 C.3     1  UNL1        0.0006
     24 C          66.9571   92.5709   16.4127 C.3     1  UNL1        0.0037
     25 C          65.7585   92.3882   15.5296 C.3     1  UNL1        0.0439
     26 C          65.9136   92.4233   14.0381 C.3     1  UNL1        0.1713
     27 C          66.0904   94.9375   11.4321 C.3     1  UNL1        0.1533
     28 N          66.8814   93.7316   11.0200 N.ar    1  UNL1       -0.2527
     29 N          67.2703   93.3695    9.6172 N.ar    1  UNL1       -0.1679
     30 C          68.0517   92.0900    9.6684 C.ar    1  UNL1        0.1213
     31 C          68.1456   91.6614   11.1028 C.ar    1  UNL1        0.0369
     32 C          67.4223   92.6759   11.9381 C.ar    1  UNL1        0.0603
@<TRIPOS>BOND
     1    27    28    1
     2    28    29   ar
     3    29    30   ar
     4    30    31   ar
     5    31    32   ar
     6    21    32    1
     7    21    22    1
     8    22    23    1
     9    23    24    1
    10    24    25    1
    11    25    26    1
    12    26    20    1
    13    20     1    1
    14     1     2   ar
    15     2     3   ar
    16     3     4    1
    17     3     5   ar
    18     5     9    1
    19     9    10    2
    20     9    11    2
    21     9    12    1
    22    12    14    1
    23    14    15   ar
    24    15    16   ar
    25    16    17   ar
    26    17    18   ar
    27    18    19   ar
    28     5     6   ar
    29     6     7   ar
    30     7     8    1
    31    32    28   ar
    32    26    21    1
    33     7     1   ar
    34    19    14   ar
    35    12    13    1
@<TRIPOS>MOLECULE
*****
 32 35 0 0 0
SMALL
GASTEIGER

@<TRIPOS>ATOM
      1 C          64.2095   91.5725   12.9551 C.ar    1  UNL1        0.1511
      2 C          63.9990   91.3096   11.4934 C.ar    1  UNL1        0.0688
      3 C          63.2491   90.0880   11.0515 C.ar    1  UNL1        0.1620
      4 F          63.0386   89.8250    9.5898 F       1  UNL1       -0.2026
      5 C          62.7096   89.1293   12.0713 C.ar    1  UNL1        0.1535
      6 C          62.9202   89.3923   13.5330 C.ar    1  UNL1        0.0369
      7 C          63.6701   90.6139   13.9749 C.ar    1  UNL1        0.0930
      8 CL         63.8806   90.8768   15.4366 Cl      1  UNL1       -0.0790
      9 S          61.9597   87.9077   11.6294 S.O2    1  UNL1        0.0769
     10 O          63.0217   87.0373   12.2334 O.2     1  UNL1       -0.1498
     11 O          60.8978   88.7780   11.0255 O.2     1  UNL1       -0.1498
     12 N          61.2098   86.6861   11.1875 N.pl3   1  UNL1       -0.1987
     13 H          60.6269   86.2099   11.8222 H       1  UNL1        0.1753
     14 C          61.3479   86.1900    9.7787 C.ar    1  UNL1        0.1503
     15 C          62.6351   85.5671    9.3257 C.ar    1  UNL1        0.0563
     16 C          62.7732   85.0711    7.9168 C.ar    1  UNL1        0.1036
     17 N          61.6241   85.1979    6.9610 N.ar    1  UNL1       -0.2223
     18 C          60.3370   85.8208    7.4140 C.ar    1  UNL1        0.2001
     19 N          60.1989   86.3168    8.8228 N.ar    1  UNL1       -0.2077
     20 O          64.9594   92.7941   13.3970 O.3     1  UNL1       -0.4779
     21 C          67.5498   92.6010   13.3429 C.3     1  UNL1        0.0799
     22 C          68.8571   92.4584   14.0643 C.3     1  UNL1        0.0095
     23 C          68.8815   92.3662   15.5612 C.3     1  UNL1        0.0006
     24 C          67.5986   92.4167   16.3368 C.3     1  UNL1        0.0037
     25 C          66.2912   92.5593   15.6154 C.3     1  UNL1        0.0439
     26 C          66.2668   92.6515   14.1185 C.3     1  UNL1        0.1713
     27 C          66.2353   95.0204   11.5912 C.3     1  UNL1        0.1533
     28 N          66.9211   93.8053   11.0408 N.ar    1  UNL1       -0.2527
     29 N          67.1231   93.4888    9.5885 N.ar    1  UNL1       -0.1679
     30 C          67.8523   92.1812    9.4961 C.ar    1  UNL1        0.1213
     31 C          68.1008   91.6895   10.8912 C.ar    1  UNL1        0.0369
     32 C          67.5253   92.6932   11.8459 C.ar    1  UNL1        0.0603
@<TRIPOS>BOND
     1    27    28    1
     2    28    29   ar
     3    29    30   ar
     4    30    31   ar
     5    31    32   ar
     6    21    32    1
     7    21    22    1
     8    22    23    1
     9    23    24    1
    10    24    25    1
    11    25    26    1
    12    26    20    1
    13    20     1    1
    14     1     2   ar
    15     2     3   ar
    16     3     4    1
    17     3     5   ar
    18     5     9    1
    19     9    10    2
    20     9    11    2
    21     9    12    1
    22    12    14    1
    23    14    15   ar
    24    15    16   ar
    25    16    17   ar
    26    17    18   ar
    27    18    19   ar
    28     5     6   ar
    29     6     7   ar
    30     7     8    1
    31    32    28   ar
    32    26    21    1
    33     7     1   ar
    34    19    14   ar
    35    12    13    1
@<TRIPOS>MOLECULE
*****
 32 35 0 0 0
SMALL
GASTEIGER

@<TRIPOS>ATOM
      1 C          62.6246   88.8781   11.9933 C.ar    1  UNL1        0.1511
      2 C          63.5980   89.0800   13.1166 C.ar    1  UNL1        0.0688
      3 C          64.4315   90.3259   13.1720 C.ar    1  UNL1        0.1620
      4 F          65.4049   90.5278   14.2952 F       1  UNL1       -0.2026
      5 C          64.2915   91.3699   12.1040 C.ar    1  UNL1        0.1535
      6 C          63.3181   91.1680   10.9808 C.ar    1  UNL1        0.0369
      7 C          62.4847   89.9221   10.9254 C.ar    1  UNL1        0.0930
      8 CL         61.5112   89.7202    9.8021 Cl      1  UNL1       -0.0790
      9 S          65.1250   92.6158   12.1594 S.O2    1  UNL1        0.0769
     10 O          65.2764   92.4487   13.6423 O.2     1  UNL1       -0.1498
     11 O          64.9736   92.7830   10.6764 O.2     1  UNL1       -0.1498
     12 N          65.9584   93.8617   12.2147 N.pl3   1  UNL1       -0.1987
     13 H          66.1167   94.3102   13.0767 H       1  UNL1        0.1753
     14 C          66.5508   94.4243   10.9566 C.ar    1  UNL1        0.1503
     15 C          67.3251   93.5352   10.0294 C.ar    1  UNL1        0.0563
     16 C          67.9174   94.0978    8.7714 C.ar    1  UNL1        0.1036
     17 N          67.7354   95.5495    8.4406 N.ar    1  UNL1       -0.2223
     18 C          66.9611   96.4386    9.3679 C.ar    1  UNL1        0.2001
     19 N          66.3688   95.8760   10.6259 N.ar    1  UNL1       -0.2077
     20 O          61.7912   87.6322   11.9380 O.3     1  UNL1       -0.4779
     21 C          62.2514   85.4268   10.6439 C.3     1  UNL1        0.0799
     22 C          62.9145   84.0840   10.5601 C.3     1  UNL1        0.0095
     23 C          63.7806   83.6037   11.6866 C.3     1  UNL1        0.0006
     24 C          63.9836   84.4662   12.8969 C.3     1  UNL1        0.0037
     25 C          63.3204   85.8090   12.9807 C.3     1  UNL1        0.0439
     26 C          62.4544   86.2893   11.8542 C.3     1  UNL1        0.1713
     27 C          62.7737   84.9041    7.4652 C.3     1  UNL1        0.1533
     28 N          61.6253   85.6669    8.0563 N.ar    1  UNL1       -0.2527
     29 N          60.5154   86.3234    7.2900 N.ar    1  UNL1       -0.1679
     30 C          59.5893   86.9695    8.2775 C.ar    1  UNL1        0.1213
     31 C          60.1269   86.7122    9.6540 C.ar    1  UNL1        0.0369
     32 C          61.3852   85.9072    9.5173 C.ar    1  UNL1        0.0603
@<TRIPOS>BOND
     1    27    28    1
     2    28    29   ar
     3    29    30   ar
     4    30    31   ar
     5    31    32   ar
     6    21    32    1
     7    21    22    1
     8    22    23    1
     9    23    24    1
    10    24    25    1
    11    25    26    1
    12    26    20    1
    13    20     1    1
    14     1     2   ar
    15     2     3   ar
    16     3     4    1
    17     3     5   ar
    18     5     9    1
    19     9    10    2
    20     9    11    2
    21     9    12    1
    22    12    14    1
    23    14    15   ar
    24    15    16   ar
    25    16    17   ar
    26    17    18   ar
    27    18    19   ar
    28     5     6   ar
    29     6     7   ar
    30     7     8    1
    31    32    28   ar
    32    26    21    1
    33     7     1   ar
    34    19    14   ar
    35    12    13    1
@<TRIPOS>MOLECULE
*****
 32 35 0 0 0
SMALL
GASTEIGER

@<TRIPOS>ATOM
      1 C          64.1389   91.2940   12.7763 C.ar    1  UNL1        0.1511
      2 C          63.6096   91.1919   11.3764 C.ar    1  UNL1        0.0688
      3 C          63.0031   89.9069   10.8959 C.ar    1  UNL1        0.1620
      4 F          62.4739   89.8047    9.4961 F       1  UNL1       -0.2026
      5 C          62.9259   88.7240   11.8152 C.ar    1  UNL1        0.1535
      6 C          63.4552   88.8262   13.2149 C.ar    1  UNL1        0.0369
      7 C          64.0617   90.1112   13.6955 C.ar    1  UNL1        0.0930
      8 CL         64.5910   90.2134   15.0953 Cl      1  UNL1       -0.0790
      9 S          62.3194   87.4390   11.3346 S.O2    1  UNL1        0.0769
     10 O          61.5416   88.1939   10.2977 O.2     1  UNL1       -0.1498
     11 O          63.0972   86.6841   12.3715 O.2     1  UNL1       -0.1498
     12 N          61.7129   86.1540   10.8540 N.pl3   1  UNL1       -0.1987
     13 H          60.8177   86.1551   10.4445 H       1  UNL1        0.1753
     14 C          62.4706   84.8673   10.9974 C.ar    1  UNL1        0.1503
     15 C          63.3523   84.3879    9.8827 C.ar    1  UNL1        0.0563
     16 C          64.1099   83.1013   10.0262 C.ar    1  UNL1        0.1036
     17 N          63.9857   82.2941   11.2844 N.ar    1  UNL1       -0.2223
     18 C          63.1039   82.7735   12.3991 C.ar    1  UNL1        0.2001
     19 N          62.3464   84.0601   12.2556 N.ar    1  UNL1       -0.2077
     20 O          64.7454   92.5790   13.2569 O.3     1  UNL1       -0.4779
     21 C          67.3398   92.5994   13.3938 C.3     1  UNL1        0.0799
     22 C          68.5978   92.5757   14.2104 C.3     1  UNL1        0.0095
     23 C          68.5193   92.5080   15.7068 C.3     1  UNL1        0.0006
     24 C          67.1829   92.4639   16.3865 C.3     1  UNL1        0.0037
     25 C          65.9250   92.4876   15.5699 C.3     1  UNL1        0.0439
     26 C          66.0034   92.5553   14.0736 C.3     1  UNL1        0.1713
     27 C          66.1623   94.9960   11.5177 C.3     1  UNL1        0.1533
     28 N          66.8770   93.7687   11.0350 N.ar    1  UNL1       -0.2527
     29 N          67.1759   93.4276    9.6053 N.ar    1  UNL1       -0.1679
     30 C          67.9019   92.1151    9.5839 C.ar    1  UNL1        0.1213
     31 C          68.0516   91.6452   11.0004 C.ar    1  UNL1        0.0369
     32 C          67.4182   92.6672   11.8973 C.ar    1  UNL1        0.0603
@<TRIPOS>BOND
     1    27    28    1
     2    28    29   ar
     3    29    30   ar
     4    30    31   ar
     5    31    32   ar
     6    21    32    1
     7    21    22    1
     8    22    23    1
     9    23    24    1
    10    24    25    1
    11    25    26    1
    12    26    20    1
    13    20     1    1
    14     1     2   ar
    15     2     3   ar
    16     3     4    1
    17     3     5   ar
    18     5     9    1
    19     9    10    2
    20     9    11    2
    21     9    12    1
    22    12    14    1
    23    14    15   ar
    24    15    16   ar
    25    16    17   ar
    26    17    18   ar
    27    18    19   ar
    28     5     6   ar
    29     6     7   ar
    30     7     8    1
    31    32    28   ar
    32    26    21    1
    33     7     1   ar
    34    19    14   ar
    35    12    13    1
@<TRIPOS>MOLECULE
*****
 32 35 0 0 0
SMALL
GASTEIGER

@<TRIPOS>ATOM
      1 C          62.1791   86.5178   10.8739 C.ar    1  UNL1        0.1511
      2 C          61.5743   85.6705    9.7939 C.ar    1  UNL1        0.0688
      3 C          60.6467   86.2861    8.7887 C.ar    1  UNL1        0.1620
      4 F          60.0418   85.4389    7.7087 F       1  UNL1       -0.2026
      5 C          60.3239   87.7492    8.8634 C.ar    1  UNL1        0.1535
      6 C          60.9287   88.5964    9.9434 C.ar    1  UNL1        0.0369
      7 C          61.8563   87.9807   10.9486 C.ar    1  UNL1        0.0930
      8 CL         62.4612   88.8280   12.0286 Cl      1  UNL1       -0.0790
      9 S          59.3963   88.3648    7.8582 S.O2    1  UNL1        0.0769
     10 O          58.6461   87.0698    7.7573 O.2     1  UNL1       -0.1498
     11 O          60.1465   89.6598    7.9591 O.2     1  UNL1       -0.1498
     12 N          58.4687   88.9805    6.8530 N.pl3   1  UNL1       -0.1987
     13 H          57.5361   88.6714    6.7896 H       1  UNL1        0.1753
     14 C          58.9620   90.0673    5.9443 C.ar    1  UNL1        0.1503
     15 C          58.0057   91.0954    5.4166 C.ar    1  UNL1        0.0563
     16 C          58.4990   92.1821    4.5080 C.ar    1  UNL1        0.1036
     17 N          59.9486   92.2406    4.1269 N.ar    1  UNL1       -0.2223
     18 C          60.9049   91.2125    4.6545 C.ar    1  UNL1        0.2001
     19 N          60.4116   90.1259    5.5632 N.ar    1  UNL1       -0.2077
     20 O          63.1067   85.9021   11.8791 O.3     1  UNL1       -0.4779
     21 C          63.3685   83.6782   13.1966 C.3     1  UNL1        0.0799
     22 C          63.5816   82.1935   13.2098 C.3     1  UNL1        0.0095
     23 C          63.7457   81.4479   11.9187 C.3     1  UNL1        0.0006
     24 C          63.6969   82.1870   10.6144 C.3     1  UNL1        0.0037
     25 C          63.4839   83.6717   10.6011 C.3     1  UNL1        0.0439
     26 C          63.3197   84.4173   11.8923 C.3     1  UNL1        0.1713
     27 C          65.6395   85.5136   14.6541 C.3     1  UNL1        0.1533
     28 N          64.2481   85.2675   15.1577 N.ar    1  UNL1       -0.2527
     29 N          63.6564   85.8218   16.4196 N.ar    1  UNL1       -0.1679
     30 C          62.2468   85.3208   16.5297 C.ar    1  UNL1        0.1213
     31 C          61.9674   84.4568   15.3358 C.ar    1  UNL1        0.0369
     32 C          63.2043   84.4239   14.4878 C.ar    1  UNL1        0.0603
@<TRIPOS>BOND
     1    27    28    1
     2    28    29   ar
     3    29    30   ar
     4    30    31   ar
     5    31    32   ar
     6    21    32    1
     7    21    22    1
     8    22    23    1
     9    23    24    1
    10    24    25    1
    11    25    26    1
    12    26    20    1
    13    20     1    1
    14     1     2   ar
    15     2     3   ar
    16     3     4    1
    17     3     5   ar
    18     5     9    1
    19     9    10    2
    20     9    11    2
    21     9    12    1
    22    12    14    1
    23    14    15   ar
    24    15    16   ar
    25    16    17   ar
    26    17    18   ar
    27    18    19   ar
    28     5     6   ar
    29     6     7   ar
    30     7     8    1
    31    32    28   ar
    32    26    21    1
    33     7     1   ar
    34    19    14   ar
    35    12    13    1
