@<TRIPOS>MOLECULE
*****
 42 45 0 0 0
SMALL
GASTEIGER

@<TRIPOS>ATOM
      1 C          60.7409   95.4406   -2.8839 C.3     1  UNL1        0.0808
      2 C          61.7619   94.9740   -1.8890 C.ar    1  UNL1        0.0375
      3 C          61.3843   93.9674   -0.8429 C.ar    1  UNL1        0.0023
      4 C          62.4053   93.5008    0.1521 C.ar    1  UNL1        0.0181
      5 C          62.0277   92.4942    1.1981 C.ar    1  UNL1        0.0082
      6 C          63.0487   92.0276    2.1931 C.ar    1  UNL1        0.0347
      7 BR         62.6711   91.0210    3.2392 Br      1  UNL1       -0.0490
      8 C          64.4472   92.5675    2.1419 C.ar    1  UNL1        0.0082
      9 C          64.8247   93.5741    1.0959 C.ar    1  UNL1        0.0197
     10 C          63.8038   94.0407    0.1010 C.ar    1  UNL1        0.0844
     11 N          64.1814   95.0473   -0.9452 N.ar    1  UNL1       -0.2119
     12 C          63.1604   95.5139   -1.9401 C.ar    1  UNL1        0.2211
     13 O          63.5380   96.5205   -2.9862 O.3     1  UNL1       -0.4563
     14 C          64.9824   96.8445   -3.2286 C.3     1  UNL1        0.2542
     15 C          61.0917   95.5131   -4.3405 C.ar    1  UNL1        0.0245
     16 C          60.7658   96.7462   -5.1300 C.ar    1  UNL1        0.0200
     17 C          61.1165   96.8187   -6.5866 C.ar    1  UNL1        0.1019
     18 N          61.7932   95.6580   -7.2538 N.ar    1  UNL1       -0.2076
     19 C          62.1190   94.4249   -6.4643 C.ar    1  UNL1        0.2598
     20 C          61.7682   94.3525   -5.0077 C.ar    1  UNL1        0.1879
     21 O          62.7956   93.2642   -7.1315 O.3     1  UNL1       -0.4541
     22 C          64.2284   93.3769   -7.5606 C.3     1  UNL1        0.2543
     23 O          62.0941   93.1193   -4.2182 O.3     1  UNL1       -0.4670
     24 C          63.5247   92.7250   -3.9996 C.3     1  UNL1        0.2527
     25 C          59.3692   95.8348   -2.4223 C.3     1  UNL1        0.1175
     26 O          59.9719   96.8560   -1.5036 O.3     1  UNL1       -0.3819
     27 H          59.2655   97.3164   -1.0241 H       1  UNL1        0.2107
     28 C          57.4675   94.2300   -5.5139 C.ar    1  UNL1        0.1913
     29 C          58.0701   95.2513   -4.5952 C.ar    1  UNL1        0.0413
     30 C          58.7666   94.8136   -3.3409 C.ar    1  UNL1        0.0248
     31 C          58.8604   93.3546   -3.0053 C.ar    1  UNL1        0.1002
     32 N          58.2577   92.3334   -3.9239 N.ar    1  UNL1       -0.2078
     33 C          57.5613   92.7711   -5.1782 C.ar    1  UNL1        0.2601
     34 C          55.2816   94.8460   -6.7759 C.3     1  UNL1        0.2527
     35 O          56.7710   94.6678   -6.7682 O.3     1  UNL1       -0.4667
     36 O          56.9586   91.7499   -6.0969 O.3     1  UNL1       -0.4541
     37 C          55.5514   91.2801   -5.8760 C.3     1  UNL1        0.2543
     38 C          57.9976   96.2289   -1.9606 C.3     1  UNL1        0.0492
     39 C          57.1770   95.2733   -1.1460 C.3     1  UNL1        0.0750
     40 N          55.7382   95.0334   -1.4957 N.3     1  UNL1       -0.2702
     41 C          54.7524   96.1621   -1.4309 C.3     1  UNL1        0.0897
     42 C          55.2853   93.6648   -1.9102 C.3     1  UNL1        0.0897
@<TRIPOS>BOND
     1    34    35    1
     2    35    28    1
     3    28    29   ar
     4    29    30   ar
     5    30    25    1
     6    25    26    1
     7    25    38    1
     8    38    39    1
     9    39    40    1
    10    40    41    1
    11    40    42    1
    12    25     1    1
    13     1     2    1
    14     2     3   ar
    15     3     4   ar
    16     4     5   ar
    17     5     6   ar
    18     6     7    1
    19     6     8   ar
    20     8     9   ar
    21     9    10   ar
    22    10    11   ar
    23    11    12   ar
    24    12    13    1
    25    13    14    1
    26     1    15    1
    27    15    16   ar
    28    16    17   ar
    29    17    18   ar
    30    18    19   ar
    31    19    21    1
    32    21    22    1
    33    19    20   ar
    34    20    23    1
    35    23    24    1
    36    30    31   ar
    37    31    32   ar
    38    32    33   ar
    39    33    36    1
    40    36    37    1
    41    33    28   ar
    42    12     2   ar
    43    20    15   ar
    44    10     4   ar
    45    26    27    1
@<TRIPOS>MOLECULE
*****
 42 45 0 0 0
SMALL
GASTEIGER

@<TRIPOS>ATOM
      1 C          60.6854   94.5674   -0.5274 C.3     1  UNL1        0.0808
      2 C          60.8989   93.7597    0.7185 C.ar    1  UNL1        0.0375
      3 C          59.7224   93.3246    1.5410 C.ar    1  UNL1        0.0023
      4 C          59.9358   92.5169    2.7868 C.ar    1  UNL1        0.0181
      5 C          58.7593   92.0819    3.6093 C.ar    1  UNL1        0.0082
      6 C          58.9728   91.2742    4.8551 C.ar    1  UNL1        0.0347
      7 BR         57.7963   90.8391    5.6777 Br      1  UNL1       -0.0490
      8 C          60.3628   90.9015    5.2784 C.ar    1  UNL1        0.0082
      9 C          61.5392   91.3366    4.4559 C.ar    1  UNL1        0.0197
     10 C          61.3258   92.1443    3.2101 C.ar    1  UNL1        0.0844
     11 N          62.5023   92.5793    2.3875 N.ar    1  UNL1       -0.2119
     12 C          62.2888   93.3870    1.1417 C.ar    1  UNL1        0.2211
     13 O          63.4653   93.8221    0.3191 O.3     1  UNL1       -0.4563
     14 C          64.7409   93.0339    0.3589 C.3     1  UNL1        0.2542
     15 C          61.7069   94.5367   -1.6253 C.ar    1  UNL1        0.0245
     16 C          61.7731   93.3618   -2.5555 C.ar    1  UNL1        0.0200
     17 C          62.7946   93.3311   -3.6535 C.ar    1  UNL1        0.1019
     18 N          63.7500   94.4753   -3.8212 N.ar    1  UNL1       -0.2076
     19 C          63.6839   95.6502   -2.8910 C.ar    1  UNL1        0.2598
     20 C          62.6623   95.6809   -1.7931 C.ar    1  UNL1        0.1879
     21 O          64.6392   96.7944   -3.0588 O.3     1  UNL1       -0.4541
     22 C          65.9626   96.7760   -2.3530 C.3     1  UNL1        0.2543
     23 O          62.5961   96.8558   -0.8628 O.3     1  UNL1       -0.4670
     24 C          63.3999   96.8558    0.4037 C.3     1  UNL1        0.2527
     25 C          59.4504   95.4058   -0.6752 C.3     1  UNL1        0.1175
     26 O          60.0417   96.4380    0.2386 O.3     1  UNL1       -0.3819
     27 H          59.4162   97.1716    0.3455 H       1  UNL1        0.2107
     28 C          58.4506   93.4609   -3.9869 C.ar    1  UNL1        0.1913
     29 C          59.0419   94.4930   -3.0731 C.ar    1  UNL1        0.0413
     30 C          58.8591   94.3737   -1.5891 C.ar    1  UNL1        0.0248
     31 C          58.0850   93.2224   -1.0189 C.ar    1  UNL1        0.1002
     32 N          57.4938   92.1903   -1.9328 N.ar    1  UNL1       -0.2078
     33 C          57.6765   92.3095   -3.4168 C.ar    1  UNL1        0.2601
     34 C          58.3561   94.8843   -6.1584 C.3     1  UNL1        0.2527
     35 O          58.6334   93.5802   -5.4710 O.3     1  UNL1       -0.4667
     36 O          57.0852   91.2774   -4.3306 O.3     1  UNL1       -0.4541
     37 C          55.9949   91.6592   -5.2873 C.3     1  UNL1        0.2543
     38 C          58.2154   96.2443   -0.8231 C.3     1  UNL1        0.0492
     39 C          57.7174   96.6115   -2.1895 C.3     1  UNL1        0.0750
     40 N          56.2715   96.4166   -2.5381 N.3     1  UNL1       -0.2702
     41 C          55.3400   95.7829   -1.5479 C.3     1  UNL1        0.0897
     42 C          55.7571   96.8557   -3.8771 C.3     1  UNL1        0.0897
@<TRIPOS>BOND
     1    34    35    1
     2    35    28    1
     3    28    29   ar
     4    29    30   ar
     5    30    25    1
     6    25    26    1
     7    25    38    1
     8    38    39    1
     9    39    40    1
    10    40    41    1
    11    40    42    1
    12    25     1    1
    13     1     2    1
    14     2     3   ar
    15     3     4   ar
    16     4     5   ar
    17     5     6   ar
    18     6     7    1
    19     6     8   ar
    20     8     9   ar
    21     9    10   ar
    22    10    11   ar
    23    11    12   ar
    24    12    13    1
    25    13    14    1
    26     1    15    1
    27    15    16   ar
    28    16    17   ar
    29    17    18   ar
    30    18    19   ar
    31    19    21    1
    32    21    22    1
    33    19    20   ar
    34    20    23    1
    35    23    24    1
    36    30    31   ar
    37    31    32   ar
    38    32    33   ar
    39    33    36    1
    40    36    37    1
    41    33    28   ar
    42    12     2   ar
    43    20    15   ar
    44    10     4   ar
    45    26    27    1
@<TRIPOS>MOLECULE
*****
 42 45 0 0 0
SMALL
GASTEIGER

@<TRIPOS>ATOM
      1 C          62.3249   89.3364   12.4352 C.3     1  UNL1        0.0808
      2 C          62.8399   87.9688   12.7739 C.ar    1  UNL1        0.0375
      3 C          62.7302   86.8570   11.7730 C.ar    1  UNL1        0.0023
      4 C          63.2451   85.4894   12.1117 C.ar    1  UNL1        0.0181
      5 C          63.1355   84.3776   11.1108 C.ar    1  UNL1        0.0082
      6 C          63.6504   83.0101   11.4495 C.ar    1  UNL1        0.0347
      7 BR         63.5408   81.8982   10.4486 Br      1  UNL1       -0.0490
      8 C          64.2750   82.7544   12.7891 C.ar    1  UNL1        0.0082
      9 C          64.3846   83.8662   13.7900 C.ar    1  UNL1        0.0197
     10 C          63.8697   85.2337   13.4513 C.ar    1  UNL1        0.0844
     11 N          63.9793   86.3456   14.4522 N.ar    1  UNL1       -0.2119
     12 C          63.4644   87.7131   14.1135 C.ar    1  UNL1        0.2211
     13 O          63.5740   88.8250   15.1144 O.3     1  UNL1       -0.4563
     14 C          63.2027   88.5833   16.5475 C.3     1  UNL1        0.2542
     15 C          63.2497   90.3623   11.8503 C.ar    1  UNL1        0.0245
     16 C          63.4342   90.4452   10.3640 C.ar    1  UNL1        0.0200
     17 C          64.3590   91.4712    9.7792 C.ar    1  UNL1        0.1019
     18 N          65.0992   92.4144   10.6806 N.ar    1  UNL1       -0.2076
     19 C          64.9147   92.3315   12.1669 C.ar    1  UNL1        0.2598
     20 C          63.9899   91.3054   12.7518 C.ar    1  UNL1        0.1879
     21 O          65.6550   93.2746   13.0683 O.3     1  UNL1       -0.4541
     22 C          66.3672   94.4612   12.4899 C.3     1  UNL1        0.2543
     23 O          63.8054   91.2225   14.2380 O.3     1  UNL1       -0.4670
     24 C          64.9721   91.4517   15.1526 C.3     1  UNL1        0.2527
     25 C          60.8852   89.6779   12.6814 C.3     1  UNL1        0.1175
     26 O          61.1931   89.9337   14.1270 O.3     1  UNL1       -0.3819
     27 H          60.3817   90.1971   14.5887 H       1  UNL1        0.2107
     28 C          60.2672   87.7627    9.2609 C.ar    1  UNL1        0.1913
     29 C          60.5751   88.0186   10.7065 C.ar    1  UNL1        0.0413
     30 C          60.5773   89.4220   11.2358 C.ar    1  UNL1        0.0248
     31 C          60.2716   90.5696   10.3196 C.ar    1  UNL1        0.1002
     32 N          59.9636   90.3138    8.8740 N.ar    1  UNL1       -0.2078
     33 C          59.9615   88.9103    8.3447 C.ar    1  UNL1        0.2601
     34 C          61.4961   85.8010    8.0811 C.3     1  UNL1        0.2527
     35 O          60.2650   86.3592    8.7315 O.3     1  UNL1       -0.4667
     36 O          59.6535   88.6545    6.8991 O.3     1  UNL1       -0.4541
     37 C          59.2741   89.7937    6.0001 C.3     1  UNL1        0.2543
     38 C          59.4455   90.0194   12.9277 C.3     1  UNL1        0.0492
     39 C          58.3655   89.0723   12.4954 C.3     1  UNL1        0.0750
     40 N          57.5753   88.3167   13.5223 N.3     1  UNL1       -0.2702
     41 C          58.2287   87.8821   14.8007 C.3     1  UNL1        0.0897
     42 C          56.1318   87.9958   13.2709 C.3     1  UNL1        0.0897
@<TRIPOS>BOND
     1    34    35    1
     2    35    28    1
     3    28    29   ar
     4    29    30   ar
     5    30    25    1
     6    25    26    1
     7    25    38    1
     8    38    39    1
     9    39    40    1
    10    40    41    1
    11    40    42    1
    12    25     1    1
    13     1     2    1
    14     2     3   ar
    15     3     4   ar
    16     4     5   ar
    17     5     6   ar
    18     6     7    1
    19     6     8   ar
    20     8     9   ar
    21     9    10   ar
    22    10    11   ar
    23    11    12   ar
    24    12    13    1
    25    13    14    1
    26     1    15    1
    27    15    16   ar
    28    16    17   ar
    29    17    18   ar
    30    18    19   ar
    31    19    21    1
    32    21    22    1
    33    19    20   ar
    34    20    23    1
    35    23    24    1
    36    30    31   ar
    37    31    32   ar
    38    32    33   ar
    39    33    36    1
    40    36    37    1
    41    33    28   ar
    42    12     2   ar
    43    20    15   ar
    44    10     4   ar
    45    26    27    1
@<TRIPOS>MOLECULE
*****
 42 45 0 0 0
SMALL
GASTEIGER

@<TRIPOS>ATOM
      1 C          62.1213   89.0790   11.6494 C.3     1  UNL1        0.0808
      2 C          63.2442   90.0246   11.9577 C.ar    1  UNL1        0.0375
      3 C          63.6797   91.0310   10.9342 C.ar    1  UNL1        0.0023
      4 C          64.8026   91.9765   11.2425 C.ar    1  UNL1        0.0181
      5 C          65.2380   92.9829   10.2190 C.ar    1  UNL1        0.0082
      6 C          66.3609   93.9284   10.5273 C.ar    1  UNL1        0.0347
      7 BR         66.7964   94.9348    9.5037 Br      1  UNL1       -0.0490
      8 C          67.0484   93.8675   11.8591 C.ar    1  UNL1        0.0082
      9 C          66.6130   92.8612   12.8826 C.ar    1  UNL1        0.0197
     10 C          65.4901   91.9157   12.5743 C.ar    1  UNL1        0.0844
     11 N          65.0546   90.9092   13.5978 N.ar    1  UNL1       -0.2119
     12 C          63.9317   89.9637   13.2895 C.ar    1  UNL1        0.2211
     13 O          63.4962   88.9573   14.3130 O.3     1  UNL1       -0.4563
     14 C          63.5534   89.2990   15.7725 C.3     1  UNL1        0.2542
     15 C          62.4097   87.7592   10.9976 C.ar    1  UNL1        0.0245
     16 C          62.4679   87.6581    9.5022 C.ar    1  UNL1        0.0200
     17 C          62.7563   86.3382    8.8504 C.ar    1  UNL1        0.1019
     18 N          62.9865   85.1195    9.6941 N.ar    1  UNL1       -0.2076
     19 C          62.9283   85.2207   11.1896 C.ar    1  UNL1        0.2598
     20 C          62.6399   86.5406   11.8413 C.ar    1  UNL1        0.1879
     21 O          63.1585   84.0020   12.0332 O.3     1  UNL1       -0.4541
     22 C          64.3172   83.0955   11.7410 C.3     1  UNL1        0.2543
     23 O          62.5817   86.6417   13.3368 O.3     1  UNL1       -0.4670
     24 C          63.5949   85.9225   14.1771 C.3     1  UNL1        0.2527
     25 C          60.7099   89.4534   11.9930 C.3     1  UNL1        0.1175
     26 O          61.0843   89.5337   13.4433 O.3     1  UNL1       -0.3819
     27 H          60.3045   89.7792   13.9653 H       1  UNL1        0.2107
     28 C          59.3690   88.0305    8.5394 C.ar    1  UNL1        0.1913
     29 C          59.7433   88.1108    9.9897 C.ar    1  UNL1        0.0413
     30 C          60.3356   89.3731   10.5426 C.ar    1  UNL1        0.0248
     31 C          60.5536   90.5551    9.6452 C.ar    1  UNL1        0.1002
     32 N          60.1793   90.4748    8.1949 N.ar    1  UNL1       -0.2078
     33 C          59.5870   89.2125    7.6420 C.ar    1  UNL1        0.2601
     34 C          59.6685   85.7190    7.3916 C.3     1  UNL1        0.2527
     35 O          58.7766   86.7682    7.9864 O.3     1  UNL1       -0.4667
     36 O          59.2126   89.1322    6.1917 O.3     1  UNL1       -0.4541
     37 C          58.8327   90.3765    5.4452 C.3     1  UNL1        0.2543
     38 C          59.2986   89.8277   12.3365 C.3     1  UNL1        0.0492
     39 C          58.2054   88.8057   12.2337 C.3     1  UNL1        0.0750
     40 N          57.5250   88.3080   13.4744 N.3     1  UNL1       -0.2702
     41 C          56.0866   87.8858   13.4230 C.3     1  UNL1        0.0897
     42 C          58.2831   88.2324   14.7666 C.3     1  UNL1        0.0897
@<TRIPOS>BOND
     1    34    35    1
     2    35    28    1
     3    28    29   ar
     4    29    30   ar
     5    30    25    1
     6    25    26    1
     7    25    38    1
     8    38    39    1
     9    39    40    1
    10    40    41    1
    11    40    42    1
    12    25     1    1
    13     1     2    1
    14     2     3   ar
    15     3     4   ar
    16     4     5   ar
    17     5     6   ar
    18     6     7    1
    19     6     8   ar
    20     8     9   ar
    21     9    10   ar
    22    10    11   ar
    23    11    12   ar
    24    12    13    1
    25    13    14    1
    26     1    15    1
    27    15    16   ar
    28    16    17   ar
    29    17    18   ar
    30    18    19   ar
    31    19    21    1
    32    21    22    1
    33    19    20   ar
    34    20    23    1
    35    23    24    1
    36    30    31   ar
    37    31    32   ar
    38    32    33   ar
    39    33    36    1
    40    36    37    1
    41    33    28   ar
    42    12     2   ar
    43    20    15   ar
    44    10     4   ar
    45    26    27    1
@<TRIPOS>MOLECULE
*****
 42 45 0 0 0
SMALL
GASTEIGER

@<TRIPOS>ATOM
      1 C          60.3911   95.1990   -0.9632 C.3     1  UNL1        0.0808
      2 C          60.7735   94.3852    0.2376 C.ar    1  UNL1        0.0375
      3 C          59.7091   93.8220    1.1318 C.ar    1  UNL1        0.0023
      4 C          60.0914   93.0083    2.3326 C.ar    1  UNL1        0.0181
      5 C          59.0270   92.4450    3.2268 C.ar    1  UNL1        0.0082
      6 C          59.4094   91.6314    4.4275 C.ar    1  UNL1        0.0347
      7 BR         58.3450   91.0681    5.3218 Br      1  UNL1       -0.0490
      8 C          60.8563   91.3810    4.7339 C.ar    1  UNL1        0.0082
      9 C          61.9207   91.9442    3.8397 C.ar    1  UNL1        0.0197
     10 C          61.5383   92.7579    2.6390 C.ar    1  UNL1        0.0844
     11 N          62.6028   93.3212    1.7447 N.ar    1  UNL1       -0.2119
     12 C          62.2203   94.1348    0.5441 C.ar    1  UNL1        0.2211
     13 O          63.2848   94.6981   -0.3502 O.3     1  UNL1       -0.4563
     14 C          64.4087   95.5008    0.2351 C.3     1  UNL1        0.2542
     15 C          61.3515   95.3466   -2.1059 C.ar    1  UNL1        0.0245
     16 C          61.8739   96.7030   -2.4761 C.ar    1  UNL1        0.0200
     17 C          62.8343   96.8507   -3.6188 C.ar    1  UNL1        0.1019
     18 N          63.2722   95.6418   -4.3914 N.ar    1  UNL1       -0.2076
     19 C          62.7498   94.2853   -4.0212 C.ar    1  UNL1        0.2598
     20 C          61.7893   94.1377   -2.8784 C.ar    1  UNL1        0.1879
     21 O          63.1876   93.0765   -4.7938 O.3     1  UNL1       -0.4541
     22 C          64.4801   92.3960   -4.4526 C.3     1  UNL1        0.2543
     23 O          61.2669   92.7813   -2.5083 O.3     1  UNL1       -0.4670
     24 C          62.0522   91.9028   -1.5800 C.3     1  UNL1        0.2527
     25 C          59.0483   95.8650   -1.0211 C.3     1  UNL1        0.1175
     26 O          59.4929   96.8516    0.0177 O.3     1  UNL1       -0.3819
     27 H          58.7701   97.4703    0.2062 H       1  UNL1        0.2107
     28 C          58.1660   94.2753   -4.5487 C.ar    1  UNL1        0.1913
     29 C          58.6106   95.2619   -3.5100 C.ar    1  UNL1        0.0413
     30 C          58.6038   94.8784   -2.0598 C.ar    1  UNL1        0.0248
     31 C          58.1524   93.5084   -1.6485 C.ar    1  UNL1        0.1002
     32 N          57.7079   92.5218   -2.6872 N.ar    1  UNL1       -0.2078
     33 C          57.7147   92.9053   -4.1374 C.ar    1  UNL1        0.2601
     34 C          59.4559   95.0652   -6.6612 C.3     1  UNL1        0.2527
     35 O          58.1728   94.6588   -5.9989 O.3     1  UNL1       -0.4667
     36 O          57.2701   91.9187   -5.1761 O.3     1  UNL1       -0.4541
     37 C          55.9538   92.1034   -5.8712 C.3     1  UNL1        0.2543
     38 C          57.7056   96.5311   -1.0790 C.3     1  UNL1        0.0492
     39 C          56.4552   95.7052   -1.0112 C.3     1  UNL1        0.0750
     40 N          55.2106   96.1701   -1.7076 N.3     1  UNL1       -0.2702
     41 C          55.1701   96.2377   -3.2054 C.3     1  UNL1        0.0897
     42 C          54.0066   96.5674   -0.9060 C.3     1  UNL1        0.0897
@<TRIPOS>BOND
     1    34    35    1
     2    35    28    1
     3    28    29   ar
     4    29    30   ar
     5    30    25    1
     6    25    26    1
     7    25    38    1
     8    38    39    1
     9    39    40    1
    10    40    41    1
    11    40    42    1
    12    25     1    1
    13     1     2    1
    14     2     3   ar
    15     3     4   ar
    16     4     5   ar
    17     5     6   ar
    18     6     7    1
    19     6     8   ar
    20     8     9   ar
    21     9    10   ar
    22    10    11   ar
    23    11    12   ar
    24    12    13    1
    25    13    14    1
    26     1    15    1
    27    15    16   ar
    28    16    17   ar
    29    17    18   ar
    30    18    19   ar
    31    19    21    1
    32    21    22    1
    33    19    20   ar
    34    20    23    1
    35    23    24    1
    36    30    31   ar
    37    31    32   ar
    38    32    33   ar
    39    33    36    1
    40    36    37    1
    41    33    28   ar
    42    12     2   ar
    43    20    15   ar
    44    10     4   ar
    45    26    27    1
@<TRIPOS>MOLECULE
*****
 42 45 0 0 0
SMALL
GASTEIGER

@<TRIPOS>ATOM
      1 C          63.1508   89.6301   12.8210 C.3     1  UNL1        0.0808
      2 C          62.2903   88.8671   11.8578 C.ar    1  UNL1        0.0375
      3 C          62.9238   88.0489   10.7720 C.ar    1  UNL1        0.0023
      4 C          62.0634   87.2858    9.8089 C.ar    1  UNL1        0.0181
      5 C          62.6968   86.4676    8.7231 C.ar    1  UNL1        0.0082
      6 C          61.8364   85.7046    7.7601 C.ar    1  UNL1        0.0347
      7 BR         62.4699   84.8863    6.6742 Br      1  UNL1       -0.0490
      8 C          60.3425   85.7599    7.8828 C.ar    1  UNL1        0.0082
      9 C          59.7090   86.5782    8.9687 C.ar    1  UNL1        0.0197
     10 C          60.5694   87.3412    9.9317 C.ar    1  UNL1        0.0844
     11 N          59.9359   88.1595   11.0176 N.ar    1  UNL1       -0.2119
     12 C          60.7964   88.9225   11.9806 C.ar    1  UNL1        0.2211
     13 O          60.1629   89.7408   13.0665 O.3     1  UNL1       -0.4563
     14 C          58.8350   89.3347   13.6339 C.3     1  UNL1        0.2542
     15 C          64.1096   90.6654   12.3123 C.ar    1  UNL1        0.0245
     16 C          64.0008   91.1589   10.8999 C.ar    1  UNL1        0.0200
     17 C          64.9597   92.1941   10.3913 C.ar    1  UNL1        0.1019
     18 N          66.0274   92.7359   11.2949 N.ar    1  UNL1       -0.2076
     19 C          66.1362   92.2425   12.7072 C.ar    1  UNL1        0.2598
     20 C          65.1773   91.2072   13.2159 C.ar    1  UNL1        0.1879
     21 O          67.2038   92.7842   13.6108 O.3     1  UNL1       -0.4541
     22 C          68.4535   91.9913   13.8545 C.3     1  UNL1        0.2543
     23 O          65.2860   90.7137   14.6282 O.3     1  UNL1       -0.4670
     24 C          65.3436   91.6934   15.7627 C.3     1  UNL1        0.2527
     25 C          63.0523   89.3578   14.2927 C.3     1  UNL1        0.1175
     26 O          62.5818   90.7637   14.5214 O.3     1  UNL1       -0.3819
     27 H          62.4203   90.9007   15.4680 H       1  UNL1        0.2107
     28 C          63.2115   85.6296   12.9419 C.ar    1  UNL1        0.1913
     29 C          62.7410   87.0354   13.1705 C.ar    1  UNL1        0.0413
     30 C          63.5228   87.9520   14.0641 C.ar    1  UNL1        0.0248
     31 C          64.7751   87.4628   14.7291 C.ar    1  UNL1        0.1002
     32 N          65.2456   86.0569   14.5005 N.ar    1  UNL1       -0.2078
     33 C          64.4638   85.1404   13.6069 C.ar    1  UNL1        0.2601
     34 C          63.1212   83.9773   10.9389 C.3     1  UNL1        0.2527
     35 O          62.4296   84.7130   12.0482 O.3     1  UNL1       -0.4667
     36 O          64.9343   83.7345   13.3783 O.3     1  UNL1       -0.4541
     37 C          64.2281   82.5899   14.0424 C.3     1  UNL1        0.2543
     38 C          62.9538   89.0855   15.7645 C.3     1  UNL1        0.0492
     39 C          61.8738   88.1871   16.2904 C.3     1  UNL1        0.0750
     40 N          62.2335   86.9755   17.0984 N.3     1  UNL1       -0.2702
     41 C          62.0658   85.6055   16.5111 C.3     1  UNL1        0.0897
     42 C          62.7609   87.1340   18.4937 C.3     1  UNL1        0.0897
@<TRIPOS>BOND
     1    34    35    1
     2    35    28    1
     3    28    29   ar
     4    29    30   ar
     5    30    25    1
     6    25    26    1
     7    25    38    1
     8    38    39    1
     9    39    40    1
    10    40    41    1
    11    40    42    1
    12    25     1    1
    13     1     2    1
    14     2     3   ar
    15     3     4   ar
    16     4     5   ar
    17     5     6   ar
    18     6     7    1
    19     6     8   ar
    20     8     9   ar
    21     9    10   ar
    22    10    11   ar
    23    11    12   ar
    24    12    13    1
    25    13    14    1
    26     1    15    1
    27    15    16   ar
    28    16    17   ar
    29    17    18   ar
    30    18    19   ar
    31    19    21    1
    32    21    22    1
    33    19    20   ar
    34    20    23    1
    35    23    24    1
    36    30    31   ar
    37    31    32   ar
    38    32    33   ar
    39    33    36    1
    40    36    37    1
    41    33    28   ar
    42    12     2   ar
    43    20    15   ar
    44    10     4   ar
    45    26    27    1
