@<TRIPOS>MOLECULE
*****
 24 26 0 0 0
SMALL
GASTEIGER

@<TRIPOS>ATOM
      1 C          61.4257   88.1787   10.8642 C.ar    1  UNL1       -0.0158
      2 C          62.2172   86.9545   11.2179 C.ar    1  UNL1        0.0050
      3 S          61.9980   85.9338   10.1408 S.2     1  UNL1       -0.0915
      4 C          61.0711   86.5270    9.1216 C.ar    1  UNL1        0.0288
      5 C          60.5035   85.9831    7.8441 C.ar    1  UNL1        0.0065
      6 C          59.5822   86.8266    7.0138 C.ar    1  UNL1        0.0005
      7 C          59.2284   88.2141    7.4609 C.ar    1  UNL1        0.0000
      8 C          59.7961   88.7580    8.7383 C.ar    1  UNL1        0.0002
      9 C          60.7174   87.9145    9.5686 C.ar    1  UNL1        0.0025
     10 C          61.3550   89.4447   11.6655 C.3     1  UNL1        0.0463
     11 C          60.0743   89.8326   12.3436 C.3     1  UNL1        0.0095
     12 C          64.9841   92.0795   12.0352 C.ar    1  UNL1        0.2250
     13 C          64.3437   91.8688   10.6952 C.ar    1  UNL1        0.0574
     14 C          63.1339   90.9906   10.5720 C.ar    1  UNL1        0.0024
     15 C          62.5646   90.3230   11.7887 C.ar    1  UNL1        0.0009
     16 C          63.2052   90.5337   13.1286 C.ar    1  UNL1        0.0981
     17 N          64.4149   91.4120   13.2518 N.ar    1  UNL1       -0.2105
     18 C          66.1746   94.3453   11.5885 C.3     1  UNL1        0.2542
     19 O          66.1939   92.9578   12.1583 O.3     1  UNL1       -0.4561
     20 C          63.0769   86.7815   12.4348 C.3     1  UNL1        0.0499
     21 C          63.3031   85.4127   13.0049 C.3     1  UNL1        0.0774
     22 N          63.2876   85.2070   14.4907 N.3     1  UNL1       -0.2700
     23 C          64.1916   86.0195   15.3697 C.3     1  UNL1        0.0897
     24 C          62.3680   84.1890   15.0973 C.3     1  UNL1        0.0897
@<TRIPOS>BOND
     1    18    19    1
     2    19    12    1
     3    12    13   ar
     4    13    14   ar
     5    14    15   ar
     6    15    10    1
     7    10    11    1
     8    10     1    1
     9     1     2   ar
    10     2    20    1
    11    20    21    1
    12    21    22    1
    13    22    23    1
    14    22    24    1
    15     2     3   ar
    16     3     4   ar
    17     4     5   ar
    18     5     6   ar
    19     6     7   ar
    20     7     8   ar
    21     8     9   ar
    22    15    16   ar
    23    16    17   ar
    24    17    12   ar
    25     9     1   ar
    26     9     4   ar
@<TRIPOS>MOLECULE
*****
 24 26 0 0 0
SMALL
GASTEIGER

@<TRIPOS>ATOM
      1 C          63.4749   89.0679   12.9539 C.ar    1  UNL1       -0.0158
      2 C          63.7534   87.6798   13.4495 C.ar    1  UNL1        0.0050
      3 S          63.1003   86.7118   12.5080 S.2     1  UNL1       -0.0915
      4 C          62.4181   87.5016   11.4306 C.ar    1  UNL1        0.0288
      5 C          61.6160   87.0829   10.2342 C.ar    1  UNL1        0.0065
      6 C          61.0454   88.1205    9.3134 C.ar    1  UNL1        0.0005
      7 C          61.2770   89.5766    9.5889 C.ar    1  UNL1        0.0000
      8 C          62.0791   89.9953   10.7853 C.ar    1  UNL1        0.0002
      9 C          62.6496   88.9578   11.7061 C.ar    1  UNL1        0.0025
     10 C          63.9400   90.3424   13.5936 C.3     1  UNL1        0.0463
     11 C          63.5145   90.6783   14.9923 C.3     1  UNL1        0.0095
     12 C          66.6116   93.1585   11.3172 C.ar    1  UNL1        0.2250
     13 C          65.2910   92.7449   10.7383 C.ar    1  UNL1        0.0574
     14 C          64.4005   91.8062   11.4972 C.ar    1  UNL1        0.0024
     15 C          64.8305   91.2811   12.8349 C.ar    1  UNL1        0.0009
     16 C          66.1510   91.6947   13.4137 C.ar    1  UNL1        0.0981
     17 N          67.0415   92.6334   12.6549 N.ar    1  UNL1       -0.2105
     18 C          68.0650   93.6876    9.2297 C.3     1  UNL1        0.2542
     19 O          67.5021   94.0972   10.5584 O.3     1  UNL1       -0.4561
     20 C          64.5459   87.3225   14.6719 C.3     1  UNL1        0.0499
     21 C          64.4514   85.9416   15.2499 C.3     1  UNL1        0.0774
     22 N          63.2274   85.5303   16.0132 N.3     1  UNL1       -0.2700
     23 C          62.3981   84.3754   15.5350 C.3     1  UNL1        0.0897
     24 C          62.8328   86.2737   17.2548 C.3     1  UNL1        0.0897
@<TRIPOS>BOND
     1    18    19    1
     2    19    12    1
     3    12    13   ar
     4    13    14   ar
     5    14    15   ar
     6    15    10    1
     7    10    11    1
     8    10     1    1
     9     1     2   ar
    10     2    20    1
    11    20    21    1
    12    21    22    1
    13    22    23    1
    14    22    24    1
    15     2     3   ar
    16     3     4   ar
    17     4     5   ar
    18     5     6   ar
    19     6     7   ar
    20     7     8   ar
    21     8     9   ar
    22    15    16   ar
    23    16    17   ar
    24    17    12   ar
    25     9     1   ar
    26     9     4   ar
@<TRIPOS>MOLECULE
*****
 24 26 0 0 0
SMALL
GASTEIGER

@<TRIPOS>ATOM
      1 C          64.2430   90.6274   14.2818 C.ar    1  UNL1       -0.0158
      2 C          65.4565   91.5042   14.1876 C.ar    1  UNL1        0.0050
      3 S          65.5429   92.0265   12.7841 S.2     1  UNL1       -0.0915
      4 C          64.3830   91.4725   12.0110 C.ar    1  UNL1        0.0288
      5 C          63.9545   91.6437   10.5838 C.ar    1  UNL1        0.0065
      6 C          62.7227   90.9503   10.0822 C.ar    1  UNL1        0.0005
      7 C          61.9193   90.0856   11.0079 C.ar    1  UNL1        0.0000
      8 C          62.3478   89.9144   12.4351 C.ar    1  UNL1        0.0002
      9 C          63.5796   90.6078   12.9367 C.ar    1  UNL1        0.0025
     10 C          63.7752   89.8982   15.5063 C.3     1  UNL1        0.0463
     11 C          63.2949   90.6687   16.7005 C.3     1  UNL1        0.0095
     12 C          63.8121   85.3993   15.5979 C.ar    1  UNL1        0.2250
     13 C          63.2249   86.1680   16.7444 C.ar    1  UNL1        0.0574
     14 C          63.2126   87.6676   16.7138 C.ar    1  UNL1        0.0024
     15 C          63.7875   88.3986   15.5368 C.ar    1  UNL1        0.0009
     16 C          64.3747   87.6299   14.3904 C.ar    1  UNL1        0.0981
     17 N          64.3870   86.1303   14.4210 N.ar    1  UNL1       -0.2105
     18 C          62.7349   83.1266   14.9461 C.3     1  UNL1        0.2542
     19 O          63.8244   83.8997   15.6285 O.3     1  UNL1       -0.4561
     20 C          66.4151   91.8057   15.3012 C.3     1  UNL1        0.0499
     21 C          67.0687   93.1532   15.3839 C.3     1  UNL1        0.0774
     22 N          68.5548   93.2772   15.2220 N.3     1  UNL1       -0.2700
     23 C          69.3051   94.3374   15.9723 C.3     1  UNL1        0.0897
     24 C          69.2905   92.3410   14.3097 C.3     1  UNL1        0.0897
@<TRIPOS>BOND
     1    18    19    1
     2    19    12    1
     3    12    13   ar
     4    13    14   ar
     5    14    15   ar
     6    15    10    1
     7    10    11    1
     8    10     1    1
     9     1     2   ar
    10     2    20    1
    11    20    21    1
    12    21    22    1
    13    22    23    1
    14    22    24    1
    15     2     3   ar
    16     3     4   ar
    17     4     5   ar
    18     5     6   ar
    19     6     7   ar
    20     7     8   ar
    21     8     9   ar
    22    15    16   ar
    23    16    17   ar
    24    17    12   ar
    25     9     1   ar
    26     9     4   ar
@<TRIPOS>MOLECULE
*****
 24 26 0 0 0
SMALL
GASTEIGER

@<TRIPOS>ATOM
      1 C          63.3868   85.8908   12.7523 C.ar    1  UNL1       -0.0158
      2 C          63.8747   85.2260   14.0052 C.ar    1  UNL1        0.0050
      3 S          64.3009   86.2986   14.9633 S.2     1  UNL1       -0.0915
      4 C          64.0763   87.6263   14.3024 C.ar    1  UNL1        0.0288
      5 C          64.3133   89.0322   14.7685 C.ar    1  UNL1        0.0065
      6 C          63.9853   90.1861   13.8680 C.ar    1  UNL1        0.0005
      7 C          63.4204   89.9341   12.5015 C.ar    1  UNL1        0.0000
      8 C          63.1834   88.5282   12.0355 C.ar    1  UNL1        0.0002
      9 C          63.5114   87.3743   12.9359 C.ar    1  UNL1        0.0025
     10 C          62.8657   85.1944   11.5301 C.3     1  UNL1        0.0463
     11 C          63.2958   83.7898   11.2266 C.3     1  UNL1        0.0095
     12 C          60.0125   87.3189    8.7742 C.ar    1  UNL1        0.2250
     13 C          61.0863   86.4379    8.2079 C.ar    1  UNL1        0.0574
     14 C          62.0374   85.7298    9.1265 C.ar    1  UNL1        0.0024
     15 C          61.9147   85.9026   10.6116 C.ar    1  UNL1        0.0009
     16 C          60.8408   86.7836   11.1778 C.ar    1  UNL1        0.0981
     17 N          59.8897   87.4917   10.2591 N.ar    1  UNL1       -0.2105
     18 C          59.5236   89.2196    7.0716 C.3     1  UNL1        0.2542
     19 O          59.0614   88.0271    7.8555 O.3     1  UNL1       -0.4561
     20 C          63.9273   83.7480   14.2561 C.3     1  UNL1        0.0499
     21 C          62.6922   83.0169   14.6919 C.3     1  UNL1        0.0774
     22 N          62.4228   81.6311   14.1849 N.3     1  UNL1       -0.2700
     23 C          61.0245   81.0879   14.1936 C.3     1  UNL1        0.0897
     24 C          63.5515   80.7885   13.6691 C.3     1  UNL1        0.0897
@<TRIPOS>BOND
     1    18    19    1
     2    19    12    1
     3    12    13   ar
     4    13    14   ar
     5    14    15   ar
     6    15    10    1
     7    10    11    1
     8    10     1    1
     9     1     2   ar
    10     2    20    1
    11    20    21    1
    12    21    22    1
    13    22    23    1
    14    22    24    1
    15     2     3   ar
    16     3     4   ar
    17     4     5   ar
    18     5     6   ar
    19     6     7   ar
    20     7     8   ar
    21     8     9   ar
    22    15    16   ar
    23    16    17   ar
    24    17    12   ar
    25     9     1   ar
    26     9     4   ar
@<TRIPOS>MOLECULE
*****
 24 26 0 0 0
SMALL
GASTEIGER

@<TRIPOS>ATOM
      1 C          62.9927   84.6265   13.3527 C.ar    1  UNL1       -0.0158
      2 C          62.5048   84.1246   14.6793 C.ar    1  UNL1        0.0050
      3 S          62.3449   82.6364   14.5814 S.2     1  UNL1       -0.0915
      4 C          62.7339   82.2185   13.1943 C.ar    1  UNL1        0.0288
      5 C          62.7753   80.8770   12.5246 C.ar    1  UNL1        0.0065
      6 C          63.2171   80.7655   11.0955 C.ar    1  UNL1        0.0005
      7 C          63.6175   81.9955   10.3361 C.ar    1  UNL1        0.0000
      8 C          63.5761   83.3371   11.0058 C.ar    1  UNL1        0.0002
      9 C          63.1343   83.4486   12.4349 C.ar    1  UNL1        0.0025
     10 C          63.2873   86.0556   13.0049 C.3     1  UNL1        0.0463
     11 C          64.3276   86.8155   13.7734 C.3     1  UNL1        0.0095
     12 C          61.0506   88.0635    9.6559 C.ar    1  UNL1        0.2250
     13 C          60.8270   86.6077    9.9402 C.ar    1  UNL1        0.0574
     14 C          61.5726   85.9384   11.0565 C.ar    1  UNL1        0.0024
     15 C          62.5418   86.7249   11.8886 C.ar    1  UNL1        0.0009
     16 C          62.7653   88.1806   11.6043 C.ar    1  UNL1        0.0981
     17 N          62.0197   88.8499   10.4880 N.ar    1  UNL1       -0.2105
     18 C          59.2865   87.9638    7.7511 C.3     1  UNL1        0.2542
     19 O          60.3050   88.7327    8.5396 O.3     1  UNL1       -0.4561
     20 C          62.2259   84.9635   15.8911 C.3     1  UNL1        0.0499
     21 C          63.3256   85.7723   16.5127 C.3     1  UNL1        0.0774
     22 N          62.9940   86.9825   17.3346 N.3     1  UNL1       -0.2700
     23 C          62.5767   86.8251   18.7668 C.3     1  UNL1        0.0897
     24 C          63.0796   88.3500   16.7243 C.3     1  UNL1        0.0897
@<TRIPOS>BOND
     1    18    19    1
     2    19    12    1
     3    12    13   ar
     4    13    14   ar
     5    14    15   ar
     6    15    10    1
     7    10    11    1
     8    10     1    1
     9     1     2   ar
    10     2    20    1
    11    20    21    1
    12    21    22    1
    13    22    23    1
    14    22    24    1
    15     2     3   ar
    16     3     4   ar
    17     4     5   ar
    18     5     6   ar
    19     6     7   ar
    20     7     8   ar
    21     8     9   ar
    22    15    16   ar
    23    16    17   ar
    24    17    12   ar
    25     9     1   ar
    26     9     4   ar
@<TRIPOS>MOLECULE
*****
 24 26 0 0 0
SMALL
GASTEIGER

@<TRIPOS>ATOM
      1 C          63.3740   90.1027   12.7209 C.ar    1  UNL1       -0.0158
      2 C          63.8888   89.8447   14.1060 C.ar    1  UNL1        0.0050
      3 S          65.0437   90.7699   14.3511 S.2     1  UNL1       -0.0915
      4 C          65.2427   91.5998   13.1175 C.ar    1  UNL1        0.0288
      5 C          66.2302   92.6777   12.7815 C.ar    1  UNL1        0.0065
      6 C          66.1858   93.3431   11.4379 C.ar    1  UNL1        0.0005
      7 C          65.1538   92.9308   10.4304 C.ar    1  UNL1        0.0000
      8 C          64.1663   91.8529   10.7665 C.ar    1  UNL1        0.0002
      9 C          64.2107   91.1874   12.1100 C.ar    1  UNL1        0.0025
     10 C          62.2243   89.3995   12.0624 C.3     1  UNL1        0.0463
     11 C          60.8616   90.0266   12.0632 C.3     1  UNL1        0.0095
     12 C          62.8628   85.4084   10.0841 C.ar    1  UNL1        0.2250
     13 C          62.4920   86.6042    9.2579 C.ar    1  UNL1        0.0574
     14 C          62.2792   87.9346    9.9174 C.ar    1  UNL1        0.0024
     15 C          62.4371   88.0692   11.4030 C.ar    1  UNL1        0.0009
     16 C          62.8079   86.8733   12.2291 C.ar    1  UNL1        0.0981
     17 N          63.0208   85.5430   11.5696 N.ar    1  UNL1       -0.2105
     18 C          63.9686   83.0574   10.0658 C.3     1  UNL1        0.2542
     19 O          63.0756   84.0781    9.4246 O.3     1  UNL1       -0.4561
     20 C          63.3442   88.8381   15.0757 C.3     1  UNL1        0.0499
     21 C          64.1166   87.5865   15.3704 C.3     1  UNL1        0.0774
     22 N          63.4609   86.4566   16.1077 N.3     1  UNL1       -0.2700
     23 C          62.7685   86.7146   17.4131 C.3     1  UNL1        0.0897
     24 C          63.4977   85.0689   15.5396 C.3     1  UNL1        0.0897
@<TRIPOS>BOND
     1    18    19    1
     2    19    12    1
     3    12    13   ar
     4    13    14   ar
     5    14    15   ar
     6    15    10    1
     7    10    11    1
     8    10     1    1
     9     1     2   ar
    10     2    20    1
    11    20    21    1
    12    21    22    1
    13    22    23    1
    14    22    24    1
    15     2     3   ar
    16     3     4   ar
    17     4     5   ar
    18     5     6   ar
    19     6     7   ar
    20     7     8   ar
    21     8     9   ar
    22    15    16   ar
    23    16    17   ar
    24    17    12   ar
    25     9     1   ar
    26     9     4   ar
@<TRIPOS>MOLECULE
*****
 24 26 0 0 0
SMALL
GASTEIGER

@<TRIPOS>ATOM
      1 C          63.8200   85.1177   13.3801 C.ar    1  UNL1       -0.0158
      2 C          63.0347   85.7914   12.2941 C.ar    1  UNL1        0.0050
      3 S          62.2993   84.7317   11.5284 S.2     1  UNL1       -0.0915
      4 C          62.6301   83.4032   12.1412 C.ar    1  UNL1        0.0288
      5 C          62.1969   82.0070   11.8050 C.ar    1  UNL1        0.0065
      6 C          62.7036   80.8495   12.6132 C.ar    1  UNL1        0.0005
      7 C          63.6434   81.0880   13.7576 C.ar    1  UNL1        0.0000
      8 C          64.0766   82.4841   14.0939 C.ar    1  UNL1        0.0002
      9 C          63.5699   83.6417   13.2857 C.ar    1  UNL1        0.0025
     10 C          64.7008   85.8002   14.3844 C.3     1  UNL1        0.0463
     11 C          65.9894   85.1605   14.8092 C.3     1  UNL1        0.0095
     12 C          63.4776   89.7666   16.1227 C.ar    1  UNL1        0.2250
     13 C          64.2810   89.7182   14.8569 C.ar    1  UNL1        0.0574
     14 C          64.6887   88.3960   14.2775 C.ar    1  UNL1        0.0024
     15 C          64.2931   87.1222   14.9638 C.ar    1  UNL1        0.0009
     16 C          63.4897   87.1707   16.2296 C.ar    1  UNL1        0.0981
     17 N          63.0820   88.4928   16.8090 N.ar    1  UNL1       -0.2105
     18 C          64.0732   92.1977   16.8191 C.3     1  UNL1        0.2542
     19 O          63.0699   91.0887   16.7021 O.3     1  UNL1       -0.4561
     20 C          62.9923   87.2658   12.0216 C.3     1  UNL1        0.0499
     21 C          61.9858   87.8219   11.0585 C.3     1  UNL1        0.0774
     22 N          61.8372   89.3063   10.9027 N.3     1  UNL1       -0.2700
     23 C          60.5896   89.8755   10.2947 C.3     1  UNL1        0.0897
     24 C          62.9362   90.2216   11.3548 C.3     1  UNL1        0.0897
@<TRIPOS>BOND
     1    18    19    1
     2    19    12    1
     3    12    13   ar
     4    13    14   ar
     5    14    15   ar
     6    15    10    1
     7    10    11    1
     8    10     1    1
     9     1     2   ar
    10     2    20    1
    11    20    21    1
    12    21    22    1
    13    22    23    1
    14    22    24    1
    15     2     3   ar
    16     3     4   ar
    17     4     5   ar
    18     5     6   ar
    19     6     7   ar
    20     7     8   ar
    21     8     9   ar
    22    15    16   ar
    23    16    17   ar
    24    17    12   ar
    25     9     1   ar
    26     9     4   ar
@<TRIPOS>MOLECULE
*****
 24 26 0 0 0
SMALL
GASTEIGER

@<TRIPOS>ATOM
      1 C          61.5959   93.7584   -1.4968 C.ar    1  UNL1       -0.0158
      2 C          60.2688   93.0799   -1.3285 C.ar    1  UNL1        0.0050
      3 S          60.2865   92.3449   -0.0211 S.2     1  UNL1       -0.0915
      4 C          61.6247   92.5690    0.6186 C.ar    1  UNL1        0.0288
      5 C          62.2108   92.0905    1.9138 C.ar    1  UNL1        0.0065
      6 C          63.6061   92.4856    2.2969 C.ar    1  UNL1        0.0005
      7 C          64.4154   93.3592    1.3848 C.ar    1  UNL1        0.0000
      8 C          63.8293   93.8378    0.0897 C.ar    1  UNL1        0.0002
      9 C          62.4339   93.4427   -0.2934 C.ar    1  UNL1        0.0025
     10 C          62.0121   94.6042   -2.6636 C.3     1  UNL1        0.0463
     11 C          61.7851   96.0867   -2.6342 C.3     1  UNL1        0.0095
     12 C          63.9416   92.6943   -6.2524 C.ar    1  UNL1        0.2250
     13 C          64.3860   92.3145   -4.8710 C.ar    1  UNL1        0.0574
     14 C          63.7428   92.9512   -3.6747 C.ar    1  UNL1        0.0024
     15 C          62.6552   93.9676   -3.8599 C.ar    1  UNL1        0.0009
     16 C          62.2109   94.3473   -5.2413 C.ar    1  UNL1        0.0981
     17 N          62.8541   93.7107   -6.4375 N.ar    1  UNL1       -0.2105
     18 C          65.5112   90.8914   -7.2703 C.3     1  UNL1        0.2542
     19 O          64.5848   92.0577   -7.4486 O.3     1  UNL1       -0.4561
     20 C          59.1247   93.1281   -2.2974 C.3     1  UNL1        0.0499
     21 C          57.7260   92.8727   -1.8197 C.3     1  UNL1        0.0774
     22 N          56.7799   94.0198   -1.6216 N.3     1  UNL1       -0.2700
     23 C          57.2969   95.3445   -1.1442 C.3     1  UNL1        0.0897
     24 C          55.3169   93.8421   -1.9010 C.3     1  UNL1        0.0897
@<TRIPOS>BOND
     1    18    19    1
     2    19    12    1
     3    12    13   ar
     4    13    14   ar
     5    14    15   ar
     6    15    10    1
     7    10    11    1
     8    10     1    1
     9     1     2   ar
    10     2    20    1
    11    20    21    1
    12    21    22    1
    13    22    23    1
    14    22    24    1
    15     2     3   ar
    16     3     4   ar
    17     4     5   ar
    18     5     6   ar
    19     6     7   ar
    20     7     8   ar
    21     8     9   ar
    22    15    16   ar
    23    16    17   ar
    24    17    12   ar
    25     9     1   ar
    26     9     4   ar
@<TRIPOS>MOLECULE
*****
 24 26 0 0 0
SMALL
GASTEIGER

@<TRIPOS>ATOM
      1 C          62.4688   88.6554   11.8468 C.ar    1  UNL1       -0.0158
      2 C          62.8127   87.2014   11.9787 C.ar    1  UNL1        0.0050
      3 S          62.1263   86.4603   10.8698 S.2     1  UNL1       -0.0915
      4 C          61.3582   87.4563   10.0526 C.ar    1  UNL1        0.0288
      5 C          60.4934   87.3032    8.8366 C.ar    1  UNL1        0.0065
      6 C          59.8402   88.5068    8.2245 C.ar    1  UNL1        0.0005
      7 C          60.0519   89.8635    8.8283 C.ar    1  UNL1        0.0000
      8 C          60.9167   90.0166   10.0442 C.ar    1  UNL1        0.0002
      9 C          61.5698   88.8130   10.6564 C.ar    1  UNL1        0.0025
     10 C          62.9409   89.7583   12.7472 C.3     1  UNL1        0.0463
     11 C          62.5220   89.7820   14.1874 C.3     1  UNL1        0.0095
     12 C          65.6141   92.9962   11.1283 C.ar    1  UNL1        0.2250
     13 C          65.7576   92.5473   12.5524 C.ar    1  UNL1        0.0574
     14 C          64.8665   91.4680   13.0920 C.ar    1  UNL1        0.0024
     15 C          63.8319   90.8376   12.2076 C.ar    1  UNL1        0.0009
     16 C          63.6884   91.2865   10.7835 C.ar    1  UNL1        0.0981
     17 N          64.5795   92.3657   10.2439 N.ar    1  UNL1       -0.2105
     18 C          67.4434   93.7774    9.4569 C.3     1  UNL1        0.2542
     19 O          66.5051   94.0754   10.5888 O.3     1  UNL1       -0.4561
     20 C          63.6891   86.5949   13.0342 C.3     1  UNL1        0.0499
     21 C          63.4713   85.1747   13.4649 C.3     1  UNL1        0.0774
     22 N          64.4173   84.5317   14.4353 N.3     1  UNL1       -0.2700
     23 C          65.7221   85.1956   14.7625 C.3     1  UNL1        0.0897
     24 C          64.0587   83.2249   15.0784 C.3     1  UNL1        0.0897
@<TRIPOS>BOND
     1    18    19    1
     2    19    12    1
     3    12    13   ar
     4    13    14   ar
     5    14    15   ar
     6    15    10    1
     7    10    11    1
     8    10     1    1
     9     1     2   ar
    10     2    20    1
    11    20    21    1
    12    21    22    1
    13    22    23    1
    14    22    24    1
    15     2     3   ar
    16     3     4   ar
    17     4     5   ar
    18     5     6   ar
    19     6     7   ar
    20     7     8   ar
    21     8     9   ar
    22    15    16   ar
    23    16    17   ar
    24    17    12   ar
    25     9     1   ar
    26     9     4   ar
