@<TRIPOS>MOLECULE
*****
 28 31 0 0 0
SMALL
GASTEIGER

@<TRIPOS>ATOM
      1 C          63.7121   88.3881   15.6911 C.ar    1  UNL1        0.0284
      2 C          64.2880   87.7720   14.4506 C.ar    1  UNL1        0.0027
      3 C          64.4846   86.2870   14.3724 C.ar    1  UNL1        0.0339
      4 C          64.1053   85.4180   15.5347 C.ar    1  UNL1        0.1311
      5 N          63.5294   86.0341   16.7753 N.ar    1  UNL1       -0.2035
      6 C          63.3328   87.5191   16.8535 C.ar    1  UNL1        0.2196
      7 F          62.7570   88.1351   18.0940 F       1  UNL1       -0.1835
      8 N          64.3019   83.9330   15.4565 N.pl3   1  UNL1       -0.3144
      9 H          65.1808   83.5412   15.6645 H       1  UNL1        0.1485
     10 C          63.1594   83.0450   15.0615 C.3     1  UNL1        0.1155
     11 C          63.1446   82.3996   13.7075 C.ar    1  UNL1        0.0001
     12 C          62.7010   80.9742   13.5609 C.ar    1  UNL1        0.0180
     13 C          62.6862   80.3288   12.2070 C.ar    1  UNL1        0.0982
     14 N          63.1150   81.1087   10.9996 N.ar    1  UNL1       -0.2482
     15 C          63.5586   82.5341   11.1462 C.ar    1  UNL1        0.0591
     16 C          63.9874   83.3141    9.9388 C.3     1  UNL1        0.0521
     17 C          63.5734   83.1795   12.5001 C.ar    1  UNL1        0.0121
     18 C          63.5155   89.8731   15.7693 C.3     1  UNL1        0.0603
     19 C          61.9332   89.9817   10.0881 C.3     1  UNL1        0.0307
     20 C          62.9365   90.6321   10.9939 C.2     1  UNL1        0.0074
     21 C          63.9028   91.6384   10.4430 C.2     1  UNL1        0.2278
     22 N          64.9061   92.2888   11.3487 N.2     1  UNL1       -0.0314
     23 C          64.9430   91.9330   12.8054 C.2     1  UNL1        0.3716
     24 N          65.8127   92.4057   13.9324 N.2     1  UNL1       -0.0311
     25 C          65.3838   91.6916   15.1799 C.2     1  UNL1        0.2319
     26 C          64.2491   90.7775   14.8239 C.2     1  UNL1        0.0328
     27 C          63.9766   90.9267   13.3563 C.2     1  UNL1        0.0704
     28 C          62.9734   90.2763   12.4506 C.3     1  UNL1        0.0598
@<TRIPOS>BOND
     1    19    20    1
     2    20    21    2
     3    21    22    1
     4    22    23    2
     5    23    24    1
     6    24    25    2
     7    25    26    1
     8    26    18    1
     9    18     1    1
    10     1     2   ar
    11     2     3   ar
    12     3     4   ar
    13     4     8    1
    14     8    10    1
    15    10    11    1
    16    11    12   ar
    17    12    13   ar
    18    13    14   ar
    19    14    15   ar
    20    15    16    1
    21    15    17   ar
    22     4     5   ar
    23     5     6   ar
    24     6     7    1
    25    26    27    2
    26    27    28    1
    27    28    20    1
    28    27    23    1
    29     6     1   ar
    30    17    11   ar
    31     8     9    1
@<TRIPOS>MOLECULE
*****
 28 31 0 0 0
SMALL
GASTEIGER

@<TRIPOS>ATOM
      1 C          62.1233   88.2734   11.1553 C.ar    1  UNL1        0.0284
      2 C          63.0312   88.1782   12.3454 C.ar    1  UNL1        0.0027
      3 C          63.7032   89.4096   12.8766 C.ar    1  UNL1        0.0339
      4 C          63.4672   90.7363   12.2176 C.ar    1  UNL1        0.1311
      5 N          62.5592   90.8315   11.0273 N.ar    1  UNL1       -0.2035
      6 C          61.8872   89.6001   10.4962 C.ar    1  UNL1        0.2196
      7 F          60.9793   89.6954    9.3060 F       1  UNL1       -0.1835
      8 N          64.1392   91.9677   12.7487 N.pl3   1  UNL1       -0.3144
      9 H          63.5977   92.7132   13.0954 H       1  UNL1        0.1485
     10 C          65.6361   92.0631   12.7517 C.3     1  UNL1        0.1155
     11 C          66.3375   92.8813   11.7084 C.ar    1  UNL1        0.0001
     12 C          66.1337   94.3665   11.6579 C.ar    1  UNL1        0.0180
     13 C          66.8351   95.1848   10.6146 C.ar    1  UNL1        0.0982
     14 N          67.7404   94.5179    9.6218 N.ar    1  UNL1       -0.2482
     15 C          67.9443   93.0326    9.6724 C.ar    1  UNL1        0.0591
     16 C          68.8496   92.3657    8.6797 C.3     1  UNL1        0.0521
     17 C          67.2429   92.2144   10.7157 C.ar    1  UNL1        0.0121
     18 C          61.4513   87.0421   10.6241 C.3     1  UNL1        0.0603
     19 C          63.5682   82.9988   14.3608 C.3     1  UNL1        0.0307
     20 C          63.5866   83.2980   12.8910 C.2     1  UNL1        0.0074
     21 C          64.3225   82.3908   11.9501 C.2     1  UNL1        0.2278
     22 N          64.3409   82.6900   10.4804 N.2     1  UNL1       -0.0314
     23 C          63.6233   83.8964    9.9515 C.2     1  UNL1        0.3716
     24 N          63.4668   84.4427    8.5634 N.2     1  UNL1       -0.0311
     25 C          62.6341   85.6876    8.6464 C.2     1  UNL1        0.2319
     26 C          62.2760   85.9107   10.0858 C.2     1  UNL1        0.0328
     27 C          62.8874   84.8035   10.8924 C.2     1  UNL1        0.0704
     28 C          62.8690   84.5044   12.3622 C.3     1  UNL1        0.0598
@<TRIPOS>BOND
     1    19    20    1
     2    20    21    2
     3    21    22    1
     4    22    23    2
     5    23    24    1
     6    24    25    2
     7    25    26    1
     8    26    18    1
     9    18     1    1
    10     1     2   ar
    11     2     3   ar
    12     3     4   ar
    13     4     8    1
    14     8    10    1
    15    10    11    1
    16    11    12   ar
    17    12    13   ar
    18    13    14   ar
    19    14    15   ar
    20    15    16    1
    21    15    17   ar
    22     4     5   ar
    23     5     6   ar
    24     6     7    1
    25    26    27    2
    26    27    28    1
    27    28    20    1
    28    27    23    1
    29     6     1   ar
    30    17    11   ar
    31     8     9    1
@<TRIPOS>MOLECULE
*****
 28 31 0 0 0
SMALL
GASTEIGER

@<TRIPOS>ATOM
      1 C          62.2169   88.3638   11.1640 C.ar    1  UNL1        0.0284
      2 C          61.9226   89.5698   10.3220 C.ar    1  UNL1        0.0027
      3 C          62.5981   90.8756   10.6200 C.ar    1  UNL1        0.0339
      4 C          63.5679   90.9753   11.7600 C.ar    1  UNL1        0.1311
      5 N          63.8622   89.7692   12.6020 N.ar    1  UNL1       -0.2035
      6 C          63.1867   88.4635   12.3040 C.ar    1  UNL1        0.2196
      7 F          63.4810   87.2575   13.1459 F       1  UNL1       -0.1835
      8 N          64.2434   92.2810   12.0580 N.pl3   1  UNL1       -0.3144
      9 H          63.7047   93.0929   12.1994 H       1  UNL1        0.1485
     10 C          65.7395   92.3498   12.1405 C.3     1  UNL1        0.1155
     11 C          66.5126   93.1211   11.1123 C.ar    1  UNL1        0.0001
     12 C          67.4832   92.4114   10.2155 C.ar    1  UNL1        0.0180
     13 C          68.2564   93.1828    9.1873 C.ar    1  UNL1        0.0982
     14 N          68.0589   94.6639    9.0558 N.ar    1  UNL1       -0.2482
     15 C          67.0883   95.3736    9.9527 C.ar    1  UNL1        0.0591
     16 C          66.8909   96.8548    9.8212 C.3     1  UNL1        0.0521
     17 C          66.3152   94.6022   10.9808 C.ar    1  UNL1        0.0121
     18 C          61.5414   87.0581   10.8660 C.3     1  UNL1        0.0603
     19 C          63.7090   82.7380   14.2467 C.3     1  UNL1        0.0307
     20 C          63.6729   83.1292   12.7991 C.2     1  UNL1        0.0074
     21 C          64.3446   82.2667   11.7720 C.2     1  UNL1        0.2278
     22 N          64.3085   82.6580   10.3244 N.2     1  UNL1       -0.0314
     23 C          63.6007   83.9118    9.9038 C.2     1  UNL1        0.3716
     24 N          63.3998   84.5486    8.5607 N.2     1  UNL1       -0.0311
     25 C          62.6039   85.8047    8.7576 C.2     1  UNL1        0.2319
     26 C          62.3129   85.9443   10.2225 C.2     1  UNL1        0.0328
     27 C          62.9290   84.7743   10.9309 C.2     1  UNL1        0.0704
     28 C          62.9651   84.3830   12.3785 C.3     1  UNL1        0.0598
@<TRIPOS>BOND
     1    19    20    1
     2    20    21    2
     3    21    22    1
     4    22    23    2
     5    23    24    1
     6    24    25    2
     7    25    26    1
     8    26    18    1
     9    18     1    1
    10     1     2   ar
    11     2     3   ar
    12     3     4   ar
    13     4     8    1
    14     8    10    1
    15    10    11    1
    16    11    12   ar
    17    12    13   ar
    18    13    14   ar
    19    14    15   ar
    20    15    16    1
    21    15    17   ar
    22     4     5   ar
    23     5     6   ar
    24     6     7    1
    25    26    27    2
    26    27    28    1
    27    28    20    1
    28    27    23    1
    29     6     1   ar
    30    17    11   ar
    31     8     9    1
@<TRIPOS>MOLECULE
*****
 28 31 0 0 0
SMALL
GASTEIGER

@<TRIPOS>ATOM
      1 C          63.6601   86.4381   15.8807 C.ar    1  UNL1        0.0284
      2 C          64.2574   87.1735   14.7178 C.ar    1  UNL1        0.0027
      3 C          64.1861   88.6707   14.6604 C.ar    1  UNL1        0.0339
      4 C          63.5174   89.4326   15.7659 C.ar    1  UNL1        0.1311
      5 N          62.9200   88.6972   16.9289 N.ar    1  UNL1       -0.2035
      6 C          62.9914   87.2000   16.9863 C.ar    1  UNL1        0.2196
      7 F          62.3940   86.4648   18.1493 F       1  UNL1       -0.1835
      8 N          63.4461   90.9298   15.7085 N.pl3   1  UNL1       -0.3144
      9 H          62.6860   91.3697   15.2635 H       1  UNL1        0.1485
     10 C          64.5328   91.7567   16.3292 C.3     1  UNL1        0.1155
     11 C          65.7564   92.1054   15.5347 C.ar    1  UNL1        0.0001
     12 C          65.8510   91.7100   14.0909 C.ar    1  UNL1        0.0180
     13 C          67.0746   92.0586   13.2964 C.ar    1  UNL1        0.0982
     14 N          68.2037   92.8027   13.9457 N.ar    1  UNL1       -0.2482
     15 C          68.1090   93.1982   15.3896 C.ar    1  UNL1        0.0591
     16 C          69.2380   93.9423   16.0390 C.3     1  UNL1        0.0521
     17 C          66.8854   92.8495   16.1840 C.ar    1  UNL1        0.0121
     18 C          63.7314   84.9410   15.9381 C.3     1  UNL1        0.0603
     19 C          60.2314   80.5014   14.2553 C.3     1  UNL1        0.0307
     20 C          61.4936   81.1768   13.8074 C.2     1  UNL1        0.0074
     21 C          62.2042   80.6981   12.5763 C.2     1  UNL1        0.2278
     22 N          63.4664   81.3735   12.1284 N.2     1  UNL1       -0.0314
     23 C          64.0180   82.5277   12.9116 C.2     1  UNL1        0.3716
     24 N          65.2335   83.3844   12.7153 N.2     1  UNL1       -0.0311
     25 C          65.2741   84.3927   13.8252 C.2     1  UNL1        0.2319
     26 C          64.0837   84.1592   14.7074 C.2     1  UNL1        0.0328
     27 C          63.3074   83.0065   14.1427 C.2     1  UNL1        0.0704
     28 C          62.0452   82.3311   14.5906 C.3     1  UNL1        0.0598
@<TRIPOS>BOND
     1    19    20    1
     2    20    21    2
     3    21    22    1
     4    22    23    2
     5    23    24    1
     6    24    25    2
     7    25    26    1
     8    26    18    1
     9    18     1    1
    10     1     2   ar
    11     2     3   ar
    12     3     4   ar
    13     4     8    1
    14     8    10    1
    15    10    11    1
    16    11    12   ar
    17    12    13   ar
    18    13    14   ar
    19    14    15   ar
    20    15    16    1
    21    15    17   ar
    22     4     5   ar
    23     5     6   ar
    24     6     7    1
    25    26    27    2
    26    27    28    1
    27    28    20    1
    28    27    23    1
    29     6     1   ar
    30    17    11   ar
    31     8     9    1
@<TRIPOS>MOLECULE
*****
 28 31 0 0 0
SMALL
GASTEIGER

@<TRIPOS>ATOM
      1 C          62.6556   84.9703    9.8656 C.ar    1  UNL1        0.0284
      2 C          61.9340   85.5141   11.0629 C.ar    1  UNL1        0.0027
      3 C          61.0891   86.7468   10.9334 C.ar    1  UNL1        0.0339
      4 C          60.9659   87.4357    9.6067 C.ar    1  UNL1        0.1311
      5 N          61.6876   86.8918    8.4094 N.ar    1  UNL1       -0.2035
      6 C          62.5325   85.6592    8.5388 C.ar    1  UNL1        0.2196
      7 F          63.2541   85.1154    7.3415 F       1  UNL1       -0.1835
      8 N          60.1210   88.6683    9.4772 N.pl3   1  UNL1       -0.3144
      9 H          59.5154   88.7715    8.7079 H       1  UNL1        0.1485
     10 C          60.1989   89.7438   10.5199 C.3     1  UNL1        0.1155
     11 C          61.5351   90.2267   11.0010 C.ar    1  UNL1        0.0001
     12 C          62.4354   90.9886   10.0743 C.ar    1  UNL1        0.0180
     13 C          63.7716   91.4715   10.5554 C.ar    1  UNL1        0.0982
     14 N          64.2076   91.1923   11.9632 N.ar    1  UNL1       -0.2482
     15 C          63.3072   90.4303   12.8900 C.ar    1  UNL1        0.0591
     16 C          63.7431   90.1511   14.2978 C.3     1  UNL1        0.0521
     17 C          61.9711   89.9475   12.4088 C.ar    1  UNL1        0.0121
     18 C          63.5005   83.7377    9.9951 C.3     1  UNL1        0.0603
     19 C          64.5524   86.2477   15.2282 C.3     1  UNL1        0.0307
     20 C          64.1917   84.9016   14.6731 C.2     1  UNL1        0.0074
     21 C          64.0060   83.7346   15.5970 C.2     1  UNL1        0.2278
     22 N          63.6453   82.3886   15.0419 N.2     1  UNL1       -0.0314
     23 C          63.4703   82.2096   13.5630 C.2     1  UNL1        0.3716
     24 N          63.1188   81.0116   12.7316 N.2     1  UNL1       -0.0311
     25 C          63.0873   81.4382   11.2938 C.2     1  UNL1        0.2319
     26 C          63.4194   82.8998   11.2366 C.2     1  UNL1        0.0328
     27 C          63.6561   83.3766   12.6391 C.2     1  UNL1        0.0704
     28 C          64.0168   84.7226   13.1942 C.3     1  UNL1        0.0598
@<TRIPOS>BOND
     1    19    20    1
     2    20    21    2
     3    21    22    1
     4    22    23    2
     5    23    24    1
     6    24    25    2
     7    25    26    1
     8    26    18    1
     9    18     1    1
    10     1     2   ar
    11     2     3   ar
    12     3     4   ar
    13     4     8    1
    14     8    10    1
    15    10    11    1
    16    11    12   ar
    17    12    13   ar
    18    13    14   ar
    19    14    15   ar
    20    15    16    1
    21    15    17   ar
    22     4     5   ar
    23     5     6   ar
    24     6     7    1
    25    26    27    2
    26    27    28    1
    27    28    20    1
    28    27    23    1
    29     6     1   ar
    30    17    11   ar
    31     8     9    1
@<TRIPOS>MOLECULE
*****
 28 31 0 0 0
SMALL
GASTEIGER

@<TRIPOS>ATOM
      1 C          62.7603   89.7751   11.3611 C.ar    1  UNL1        0.0284
      2 C          62.1283   89.3290   10.0760 C.ar    1  UNL1        0.0027
      3 C          61.8743   87.8710    9.8316 C.ar    1  UNL1        0.0339
      4 C          62.2523   86.8591   10.8723 C.ar    1  UNL1        0.1311
      5 N          62.8844   87.3053   12.1575 N.ar    1  UNL1       -0.2035
      6 C          63.1383   88.7633   12.4019 C.ar    1  UNL1        0.2196
      7 F          63.7703   89.2093   13.6871 F       1  UNL1       -0.1835
      8 N          61.9984   85.4011   10.6279 N.pl3   1  UNL1       -0.3144
      9 H          61.0976   85.0938   10.3762 H       1  UNL1        0.1485
     10 C          63.1169   84.4114   10.7670 C.3     1  UNL1        0.1155
     11 C          63.2319   83.5793   12.0098 C.ar    1  UNL1        0.0001
     12 C          63.9270   84.1301   13.2195 C.ar    1  UNL1        0.0180
     13 C          64.0420   83.2981   14.4622 C.ar    1  UNL1        0.0982
     14 N          63.4619   81.9152   14.4953 N.ar    1  UNL1       -0.2482
     15 C          62.7667   81.3644   13.2855 C.ar    1  UNL1        0.0591
     16 C          62.1865   79.9815   13.3187 C.3     1  UNL1        0.0521
     17 C          62.6517   82.1965   12.0429 C.ar    1  UNL1        0.0121
     18 C          63.0142   91.2331   11.6055 C.3     1  UNL1        0.0603
     19 C          65.7034   92.3279   16.7399 C.3     1  UNL1        0.0307
     20 C          65.9950   92.4143   15.2711 C.2     1  UNL1        0.0074
     21 C          67.3300   92.9095   14.7994 C.2     1  UNL1        0.2278
     22 N          67.6216   92.9959   13.3305 N.2     1  UNL1       -0.0314
     23 C          66.5783   92.5870   12.3334 C.2     1  UNL1        0.3716
     24 N          66.5781   92.5629   10.8336 N.2     1  UNL1       -0.0311
     25 C          65.2429   92.0528   10.3784 C.2     1  UNL1        0.2319
     26 C          64.4180   91.7616   11.5968 C.2     1  UNL1        0.0328
     27 C          65.2434   92.0918   12.8051 C.2     1  UNL1        0.0704
     28 C          64.9517   92.0054   14.2740 C.3     1  UNL1        0.0598
@<TRIPOS>BOND
     1    19    20    1
     2    20    21    2
     3    21    22    1
     4    22    23    2
     5    23    24    1
     6    24    25    2
     7    25    26    1
     8    26    18    1
     9    18     1    1
    10     1     2   ar
    11     2     3   ar
    12     3     4   ar
    13     4     8    1
    14     8    10    1
    15    10    11    1
    16    11    12   ar
    17    12    13   ar
    18    13    14   ar
    19    14    15   ar
    20    15    16    1
    21    15    17   ar
    22     4     5   ar
    23     5     6   ar
    24     6     7    1
    25    26    27    2
    26    27    28    1
    27    28    20    1
    28    27    23    1
    29     6     1   ar
    30    17    11   ar
    31     8     9    1
@<TRIPOS>MOLECULE
*****
 28 31 0 0 0
SMALL
GASTEIGER

@<TRIPOS>ATOM
      1 C          63.8029   87.6793   15.6876 C.ar    1  UNL1        0.0284
      2 C          64.5452   87.0244   14.5606 C.ar    1  UNL1        0.0027
      3 C          64.5427   85.5302   14.4289 C.ar    1  UNL1        0.0339
      4 C          63.7980   84.6908   15.4243 C.ar    1  UNL1        0.1311
      5 N          63.0557   85.3457   16.5513 N.ar    1  UNL1       -0.2035
      6 C          63.0581   86.8399   16.6830 C.ar    1  UNL1        0.2196
      7 F          62.3158   87.4947   17.8100 F       1  UNL1       -0.1835
      8 N          63.7956   83.1966   15.2926 N.pl3   1  UNL1       -0.3144
      9 H          64.4056   82.6530   15.8418 H       1  UNL1        0.1485
     10 C          62.8637   82.5306   14.3242 C.3     1  UNL1        0.1155
     11 C          63.2818   82.3309   12.8975 C.ar    1  UNL1        0.0001
     12 C          64.1276   83.3629   12.2124 C.ar    1  UNL1        0.0180
     13 C          64.5457   83.1633   10.7858 C.ar    1  UNL1        0.0982
     14 N          64.1180   81.9316   10.0442 N.ar    1  UNL1       -0.2482
     15 C          63.2721   80.8995   10.7294 C.ar    1  UNL1        0.0591
     16 C          62.8444   79.6678    9.9878 C.3     1  UNL1        0.0521
     17 C          62.8541   81.0992   12.1560 C.ar    1  UNL1        0.0121
     18 C          63.8053   89.1735   15.8192 C.3     1  UNL1        0.0603
     19 C          67.8827   93.4283   15.5686 C.3     1  UNL1        0.0307
     20 C          66.7841   92.8650   14.7167 C.2     1  UNL1        0.0074
     21 C          66.5108   93.4491   13.3624 C.2     1  UNL1        0.2278
     22 N          65.4122   92.8857   12.5105 N.2     1  UNL1       -0.0314
     23 C          64.5870   91.7383   13.0128 C.2     1  UNL1        0.3716
     24 N          63.4462   90.9794   12.4023 N.2     1  UNL1       -0.0311
     25 C          63.0145   89.9262   13.3793 C.2     1  UNL1        0.2319
     26 C          63.8885   90.0342   14.5936 C.2     1  UNL1        0.0328
     27 C          64.8604   91.1542   14.3670 C.2     1  UNL1        0.0704
     28 C          65.9589   91.7175   15.2190 C.3     1  UNL1        0.0598
@<TRIPOS>BOND
     1    19    20    1
     2    20    21    2
     3    21    22    1
     4    22    23    2
     5    23    24    1
     6    24    25    2
     7    25    26    1
     8    26    18    1
     9    18     1    1
    10     1     2   ar
    11     2     3   ar
    12     3     4   ar
    13     4     8    1
    14     8    10    1
    15    10    11    1
    16    11    12   ar
    17    12    13   ar
    18    13    14   ar
    19    14    15   ar
    20    15    16    1
    21    15    17   ar
    22     4     5   ar
    23     5     6   ar
    24     6     7    1
    25    26    27    2
    26    27    28    1
    27    28    20    1
    28    27    23    1
    29     6     1   ar
    30    17    11   ar
    31     8     9    1
@<TRIPOS>MOLECULE
*****
 28 31 0 0 0
SMALL
GASTEIGER

@<TRIPOS>ATOM
      1 C          62.8553   84.7536   10.2317 C.ar    1  UNL1        0.0284
      2 C          64.0295   83.8430   10.4364 C.ar    1  UNL1        0.0027
      3 C          64.3620   83.3454   11.8119 C.ar    1  UNL1        0.0339
      4 C          63.5202   83.7584   12.9827 C.ar    1  UNL1        0.1311
      5 N          62.3459   84.6691   12.7779 N.ar    1  UNL1       -0.2035
      6 C          62.0134   85.1667   11.4025 C.ar    1  UNL1        0.2196
      7 F          60.8392   86.0773   11.1979 F       1  UNL1       -0.1835
      8 N          63.8526   83.2608   14.3581 N.pl3   1  UNL1       -0.3144
      9 H          63.5467   82.3707   14.6469 H       1  UNL1        0.1485
     10 C          64.6511   84.1194   15.2936 C.3     1  UNL1        0.1155
     11 C          64.1563   85.4861   15.6642 C.ar    1  UNL1        0.0001
     12 C          63.2852   85.6664   16.8719 C.ar    1  UNL1        0.0180
     13 C          62.7904   87.0331   17.2425 C.ar    1  UNL1        0.0982
     14 N          63.1667   88.2195   16.4053 N.ar    1  UNL1       -0.2482
     15 C          64.0378   88.0391   15.1975 C.ar    1  UNL1        0.0591
     16 C          64.4140   89.2255   14.3603 C.3     1  UNL1        0.0521
     17 C          64.5325   86.6725   14.8270 C.ar    1  UNL1        0.0121
     18 C          62.5228   85.2513    8.8563 C.3     1  UNL1        0.0603
     19 C          63.1612   90.6146   11.2266 C.3     1  UNL1        0.0307
     20 C          62.1600   89.8523   10.4103 C.2     1  UNL1        0.0074
     21 C          60.8807   90.5108    9.9864 C.2     1  UNL1        0.2278
     22 N          59.8795   89.7485    9.1701 N.2     1  UNL1       -0.0314
     23 C          60.1575   88.3277    8.7776 C.2     1  UNL1        0.3716
     24 N          59.3651   87.3325    7.9829 N.2     1  UNL1       -0.0311
     25 C          60.1547   86.0589    7.9156 C.2     1  UNL1        0.2319
     26 C          61.4351   86.2670    8.6688 C.2     1  UNL1        0.0328
     27 C          61.4368   87.6692    9.2015 C.2     1  UNL1        0.0704
     28 C          62.4381   88.4315   10.0179 C.3     1  UNL1        0.0598
@<TRIPOS>BOND
     1    19    20    1
     2    20    21    2
     3    21    22    1
     4    22    23    2
     5    23    24    1
     6    24    25    2
     7    25    26    1
     8    26    18    1
     9    18     1    1
    10     1     2   ar
    11     2     3   ar
    12     3     4   ar
    13     4     8    1
    14     8    10    1
    15    10    11    1
    16    11    12   ar
    17    12    13   ar
    18    13    14   ar
    19    14    15   ar
    20    15    16    1
    21    15    17   ar
    22     4     5   ar
    23     5     6   ar
    24     6     7    1
    25    26    27    2
    26    27    28    1
    27    28    20    1
    28    27    23    1
    29     6     1   ar
    30    17    11   ar
    31     8     9    1
@<TRIPOS>MOLECULE
*****
 28 31 0 0 0
SMALL
GASTEIGER

@<TRIPOS>ATOM
      1 C          62.1848   88.2971   11.0691 C.ar    1  UNL1        0.0284
      2 C          61.8789   89.4705   10.1861 C.ar    1  UNL1        0.0027
      3 C          62.5420   90.7921   10.4385 C.ar    1  UNL1        0.0339
      4 C          63.5109   90.9404   11.5739 C.ar    1  UNL1        0.1311
      5 N          63.8168   89.7670   12.4569 N.ar    1  UNL1       -0.2035
      6 C          63.1537   88.4454   12.2046 C.ar    1  UNL1        0.2196
      7 F          63.4596   87.2720   13.0876 F       1  UNL1       -0.1835
      8 N          64.1740   92.2620   11.8263 N.pl3   1  UNL1       -0.3144
      9 H          63.6616   93.0967   11.7270 H       1  UNL1        0.1485
     10 C          65.6178   92.3117   12.2300 C.3     1  UNL1        0.1155
     11 C          65.9874   92.4740   13.6747 C.ar    1  UNL1        0.0001
     12 C          65.0385   92.0261   14.7465 C.ar    1  UNL1        0.0180
     13 C          65.4081   92.1884   16.1912 C.ar    1  UNL1        0.0982
     14 N          66.7267   92.7986   16.5640 N.ar    1  UNL1       -0.2482
     15 C          67.6756   93.2465   15.4921 C.ar    1  UNL1        0.0591
     16 C          68.9942   93.8568   15.8649 C.3     1  UNL1        0.0521
     17 C          67.3060   93.0842   14.0475 C.ar    1  UNL1        0.0121
     18 C          61.5217   86.9755   10.8167 C.3     1  UNL1        0.0603
     19 C          63.6641   82.6994   14.2687 C.3     1  UNL1        0.0307
     20 C          63.6390   83.0722   12.8160 C.2     1  UNL1        0.0074
     21 C          64.3186   82.1967   11.8052 C.2     1  UNL1        0.2278
     22 N          64.2934   82.5695   10.3525 N.2     1  UNL1       -0.0314
     23 C          63.5887   83.8177    9.9106 C.2     1  UNL1        0.3716
     24 N          63.3979   84.4372    8.5579 N.2     1  UNL1       -0.0311
     25 C          62.6004   85.6956    8.7327 C.2     1  UNL1        0.2319
     26 C          62.2983   85.8538   10.1934 C.2     1  UNL1        0.0328
     27 C          62.9091   84.6931   10.9214 C.2     1  UNL1        0.0704
     28 C          62.9342   84.3203   12.3741 C.3     1  UNL1        0.0598
@<TRIPOS>BOND
     1    19    20    1
     2    20    21    2
     3    21    22    1
     4    22    23    2
     5    23    24    1
     6    24    25    2
     7    25    26    1
     8    26    18    1
     9    18     1    1
    10     1     2   ar
    11     2     3   ar
    12     3     4   ar
    13     4     8    1
    14     8    10    1
    15    10    11    1
    16    11    12   ar
    17    12    13   ar
    18    13    14   ar
    19    14    15   ar
    20    15    16    1
    21    15    17   ar
    22     4     5   ar
    23     5     6   ar
    24     6     7    1
    25    26    27    2
    26    27    28    1
    27    28    20    1
    28    27    23    1
    29     6     1   ar
    30    17    11   ar
    31     8     9    1
