@<TRIPOS>MOLECULE
*****
 30 33 0 0 0
SMALL
GASTEIGER

@<TRIPOS>ATOM
      1 N          63.0901   84.2907   13.7736 N.pl3   1  UNL1       -0.2834
      2 C          63.6766   84.9471   14.9881 C.3     1  UNL1        0.1221
      3 C          63.9490   86.3836   14.6527 C.ar    1  UNL1        0.0337
      4 C          64.4799   87.6770   15.1961 C.ar    1  UNL1        0.0990
      5 N          64.3898   88.7077   14.1101 N.ar    1  UNL1       -0.2287
      6 N          63.8032   88.0513   12.8955 N.ar    1  UNL1       -0.1681
      7 C          63.5308   86.6149   13.2309 C.ar    1  UNL1        0.0960
      8 C          63.0000   85.3215   12.6875 C.3     1  UNL1        0.1161
      9 C          60.9121   80.9881   14.0891 C.ar    1  UNL1        0.3213
     10 N          61.8232   79.9852   13.4456 N.ar    1  UNL1       -0.1902
     11 C          63.1566   80.4175   12.9114 C.ar    1  UNL1        0.1361
     12 C          63.5789   81.8526   13.0207 C.ar    1  UNL1        0.1908
     13 F          64.9122   82.2849   12.4865 F       1  UNL1       -0.1996
     14 C          62.6678   82.8556   13.6642 C.ar    1  UNL1        0.1661
     15 N          61.3345   82.4233   14.1984 N.ar    1  UNL1       -0.1769
     16 C          59.0794   79.1665   14.3585 C.3     1  UNL1        0.2559
     17 O          59.5788   80.5559   14.6233 O.3     1  UNL1       -0.4426
     18 C          64.8121   90.1429   14.2194 C.ar    1  UNL1        0.0841
     19 C          64.9650   90.7790   15.5692 C.ar    1  UNL1        0.0192
     20 C          65.3873   92.2142   15.6784 C.ar    1  UNL1        0.0029
     21 C          65.6566   93.0133   14.4379 C.ar    1  UNL1        0.0184
     22 C          65.5037   92.3772   13.0881 C.ar    1  UNL1        0.1072
     23 C          65.0814   90.9420   12.9789 C.ar    1  UNL1        0.0375
     24 S          65.7731   93.1762   11.8476 S.O2    1  UNL1        0.0105
     25 C          66.0425   93.9753   10.6071 C.3     1  UNL1        0.1816
     26 O          64.9839   92.1887   11.0401 O.2     1  UNL1       -0.1686
     27 O          66.5623   94.1638   12.6551 O.2     1  UNL1       -0.1686
     28 C          62.4718   85.0981   11.3015 C.3     1  UNL1        0.0240
     29 C          61.2869   85.8791   10.8155 C.3     1  UNL1        0.0021
     30 C          63.1283   84.0936   10.4016 C.3     1  UNL1        0.0021
@<TRIPOS>BOND
     1    16    17    1
     2    17     9    1
     3     9    10   ar
     4    10    11   ar
     5    11    12   ar
     6    12    13    1
     7    12    14   ar
     8    14     1    1
     9     1     2    1
    10     2     3    1
    11     3     4   ar
    12     4     5   ar
    13     5    18    1
    14    18    19   ar
    15    19    20   ar
    16    20    21   ar
    17    21    22   ar
    18    22    24    1
    19    24    25    1
    20    24    26    2
    21    24    27    2
    22    22    23   ar
    23     5     6   ar
    24     6     7   ar
    25     7     8    1
    26     8    28    1
    27    28    29    1
    28    28    30    1
    29    14    15   ar
    30    15     9   ar
    31     8     1    1
    32     7     3   ar
    33    23    18   ar
@<TRIPOS>MOLECULE
*****
 30 33 0 0 0
SMALL
GASTEIGER

@<TRIPOS>ATOM
      1 N          65.5888   92.8064   12.2411 N.pl3   1  UNL1       -0.2834
      2 C          64.2778   92.0943   12.0849 C.3     1  UNL1        0.1221
      3 C          64.2520   90.9519   13.0566 C.ar    1  UNL1        0.0337
      4 C          63.4259   89.8059   13.5606 C.ar    1  UNL1        0.0990
      5 N          64.2104   89.1035   14.6289 N.ar    1  UNL1       -0.2287
      6 N          65.5214   89.8155   14.7852 N.ar    1  UNL1       -0.1681
      7 C          65.5471   90.9579   13.8135 C.ar    1  UNL1        0.0960
      8 C          66.3733   92.1040   13.3095 C.3     1  UNL1        0.1161
      9 C          66.6423   95.1285    9.2001 C.ar    1  UNL1        0.3213
     10 N          66.9323   96.4157    9.9136 N.ar    1  UNL1       -0.1902
     11 C          66.7745   96.4997   11.4030 C.ar    1  UNL1        0.1361
     12 C          66.3267   95.2967   12.1788 C.ar    1  UNL1        0.1908
     13 F          66.1689   95.3807   13.6680 F       1  UNL1       -0.1996
     14 C          66.0366   94.0094   11.4653 C.ar    1  UNL1        0.1661
     15 N          66.1944   93.9254    9.9760 N.ar    1  UNL1       -0.1769
     16 C          66.1532   96.0709    6.8290 C.3     1  UNL1        0.2559
     17 O          66.8001   95.0445    7.7108 O.3     1  UNL1       -0.4426
     18 C          63.7626   87.9004   15.4048 C.ar    1  UNL1        0.0841
     19 C          63.1321   88.0708   16.7551 C.ar    1  UNL1        0.0192
     20 C          62.6843   86.8676   17.5310 C.ar    1  UNL1        0.0029
     21 C          62.8669   85.4941   16.9564 C.ar    1  UNL1        0.0184
     22 C          63.4973   85.3237   15.6061 C.ar    1  UNL1        0.1072
     23 C          63.9451   86.5269   14.8303 C.ar    1  UNL1        0.0375
     24 S          63.6800   83.9502   15.0315 S.O2    1  UNL1        0.0105
     25 C          63.8625   82.5767   14.4569 C.3     1  UNL1        0.1816
     26 O          65.0029   84.3654   14.4592 O.2     1  UNL1       -0.1686
     27 O          62.3570   83.5350   15.6038 O.2     1  UNL1       -0.1686
     28 C          67.7433   92.4814   13.7895 C.3     1  UNL1        0.0240
     29 C          68.9548   92.0374   13.0245 C.3     1  UNL1        0.0021
     30 C          67.9019   93.3029   15.0345 C.3     1  UNL1        0.0021
@<TRIPOS>BOND
     1    16    17    1
     2    17     9    1
     3     9    10   ar
     4    10    11   ar
     5    11    12   ar
     6    12    13    1
     7    12    14   ar
     8    14     1    1
     9     1     2    1
    10     2     3    1
    11     3     4   ar
    12     4     5   ar
    13     5    18    1
    14    18    19   ar
    15    19    20   ar
    16    20    21   ar
    17    21    22   ar
    18    22    24    1
    19    24    25    1
    20    24    26    2
    21    24    27    2
    22    22    23   ar
    23     5     6   ar
    24     6     7   ar
    25     7     8    1
    26     8    28    1
    27    28    29    1
    28    28    30    1
    29    14    15   ar
    30    15     9   ar
    31     8     1    1
    32     7     3   ar
    33    23    18   ar
@<TRIPOS>MOLECULE
*****
 30 33 0 0 0
SMALL
GASTEIGER

@<TRIPOS>ATOM
      1 N          64.4139   90.5634   13.6910 N.pl3   1  UNL1       -0.2834
      2 C          64.0129   91.0797   12.3409 C.3     1  UNL1        0.1221
      3 C          63.2353   90.0024   11.6448 C.ar    1  UNL1        0.0337
      4 C          62.5069   89.6558   10.3802 C.ar    1  UNL1        0.0990
      5 N          61.9770   88.2593   10.5184 N.ar    1  UNL1       -0.2287
      6 N          62.3779   87.7429   11.8684 N.ar    1  UNL1       -0.1681
      7 C          63.1556   88.8202   12.5646 C.ar    1  UNL1        0.0960
      8 C          63.8840   89.1668   13.8292 C.3     1  UNL1        0.1161
      9 C          67.4555   92.3312   15.5275 C.ar    1  UNL1        0.3213
     10 N          66.7892   92.8093   16.7835 N.ar    1  UNL1       -0.1902
     11 C          65.3310   92.5387   17.0086 C.ar    1  UNL1        0.1361
     12 C          64.5393   91.7901   15.9778 C.ar    1  UNL1        0.1908
     13 F          63.0812   91.5195   16.2029 F       1  UNL1       -0.1996
     14 C          65.2056   91.3120   14.7218 C.ar    1  UNL1        0.1661
     15 N          66.6637   91.5826   14.4967 N.ar    1  UNL1       -0.1769
     16 C          69.5487   93.8267   15.8908 C.3     1  UNL1        0.2559
     17 O          68.9136   92.6018   15.3025 O.3     1  UNL1       -0.4426
     18 C          61.1852   87.5106    9.4876 C.ar    1  UNL1        0.0841
     19 C          59.7123   87.7576    9.3482 C.ar    1  UNL1        0.0192
     20 C          58.9206   87.0089    8.3173 C.ar    1  UNL1        0.0029
     21 C          59.6018   86.0132    7.4259 C.ar    1  UNL1        0.0184
     22 C          61.0747   85.7663    7.5653 C.ar    1  UNL1        0.1072
     23 C          61.8664   86.5150    8.5961 C.ar    1  UNL1        0.0375
     24 S          61.7559   84.7706    6.6739 S.O2    1  UNL1        0.0105
     25 C          62.4371   83.7750    5.7824 C.3     1  UNL1        0.1816
     26 O          63.0557   85.0315    7.3756 O.2     1  UNL1       -0.1686
     27 O          60.4561   84.5097    5.9720 O.2     1  UNL1       -0.1686
     28 C          64.0529   88.2738   15.0225 C.3     1  UNL1        0.0240
     29 C          64.8648   87.0175   14.9102 C.3     1  UNL1        0.0021
     30 C          63.4098   88.6370   16.3281 C.3     1  UNL1        0.0021
@<TRIPOS>BOND
     1    16    17    1
     2    17     9    1
     3     9    10   ar
     4    10    11   ar
     5    11    12   ar
     6    12    13    1
     7    12    14   ar
     8    14     1    1
     9     1     2    1
    10     2     3    1
    11     3     4   ar
    12     4     5   ar
    13     5    18    1
    14    18    19   ar
    15    19    20   ar
    16    20    21   ar
    17    21    22   ar
    18    22    24    1
    19    24    25    1
    20    24    26    2
    21    24    27    2
    22    22    23   ar
    23     5     6   ar
    24     6     7   ar
    25     7     8    1
    26     8    28    1
    27    28    29    1
    28    28    30    1
    29    14    15   ar
    30    15     9   ar
    31     8     1    1
    32     7     3   ar
    33    23    18   ar
@<TRIPOS>MOLECULE
*****
 30 33 0 0 0
SMALL
GASTEIGER

@<TRIPOS>ATOM
      1 N          62.0156   87.7954   10.2009 N.pl3   1  UNL1       -0.2834
      2 C          62.2103   89.2827   10.2127 C.3     1  UNL1        0.1221
      3 C          62.9373   89.6450   11.4738 C.ar    1  UNL1        0.0337
      4 C          63.5068   90.7882   12.2604 C.ar    1  UNL1        0.0990
      5 N          64.1135   90.2313   13.5141 N.ar    1  UNL1       -0.2287
      6 N          63.9188   88.7441   13.5024 N.ar    1  UNL1       -0.1681
      7 C          63.1919   88.3817   12.2413 C.ar    1  UNL1        0.0960
      8 C          62.6223   87.2385   11.4547 C.3     1  UNL1        0.1161
      9 C          61.4495   85.2828    7.1816 C.ar    1  UNL1        0.3213
     10 N          59.9707   85.4209    6.9713 N.ar    1  UNL1       -0.1902
     11 C          59.1736   86.3506    7.8377 C.ar    1  UNL1        0.1361
     12 C          59.8552   87.1420    8.9141 C.ar    1  UNL1        0.1908
     13 F          59.0581   88.0716    9.7804 F       1  UNL1       -0.1996
     14 C          61.3340   87.0039    9.1244 C.ar    1  UNL1        0.1661
     15 N          62.1311   86.0743    8.2581 N.ar    1  UNL1       -0.1769
     16 C          61.8948   84.1919    4.8661 C.3     1  UNL1        0.2559
     17 O          62.2465   84.3532    6.3153 O.3     1  UNL1       -0.4426
     18 C          64.7951   91.0228   14.5907 C.ar    1  UNL1        0.0841
     19 C          64.0516   91.3808   15.8432 C.ar    1  UNL1        0.0192
     20 C          64.7333   92.1723   16.9198 C.ar    1  UNL1        0.0029
     21 C          66.1585   92.6058   16.7437 C.ar    1  UNL1        0.0184
     22 C          66.9020   92.2477   15.4912 C.ar    1  UNL1        0.1072
     23 C          66.2203   91.4562   14.4146 C.ar    1  UNL1        0.0375
     24 S          68.3272   92.6811   15.3150 S.O2    1  UNL1        0.0105
     25 C          69.7524   93.1145   15.1390 C.3     1  UNL1        0.1816
     26 O          68.0284   93.0902   13.9032 O.2     1  UNL1       -0.1686
     27 O          68.6260   92.2720   16.7270 O.2     1  UNL1       -0.1686
     28 C          62.6538   85.7925   11.8521 C.3     1  UNL1        0.0240
     29 C          63.3493   85.3765   13.1144 C.3     1  UNL1        0.0021
     30 C          61.9899   84.7624   10.9872 C.3     1  UNL1        0.0021
@<TRIPOS>BOND
     1    16    17    1
     2    17     9    1
     3     9    10   ar
     4    10    11   ar
     5    11    12   ar
     6    12    13    1
     7    12    14   ar
     8    14     1    1
     9     1     2    1
    10     2     3    1
    11     3     4   ar
    12     4     5   ar
    13     5    18    1
    14    18    19   ar
    15    19    20   ar
    16    20    21   ar
    17    21    22   ar
    18    22    24    1
    19    24    25    1
    20    24    26    2
    21    24    27    2
    22    22    23   ar
    23     5     6   ar
    24     6     7   ar
    25     7     8    1
    26     8    28    1
    27    28    29    1
    28    28    30    1
    29    14    15   ar
    30    15     9   ar
    31     8     1    1
    32     7     3   ar
    33    23    18   ar
@<TRIPOS>MOLECULE
*****
 30 33 0 0 0
SMALL
GASTEIGER

@<TRIPOS>ATOM
      1 N          63.2766   84.6341   13.4009 N.pl3   1  UNL1       -0.2834
      2 C          64.0210   85.1760   14.5851 C.3     1  UNL1        0.1221
      3 C          64.2221   86.6472   14.3728 C.ar    1  UNL1        0.0337
      4 C          64.8065   87.8913   14.9734 C.ar    1  UNL1        0.0990
      5 N          64.5475   89.0276   14.0291 N.ar    1  UNL1       -0.2287
      6 N          63.8032   88.4858   12.8449 N.ar    1  UNL1       -0.1681
      7 C          63.6021   87.0146   13.0573 C.ar    1  UNL1        0.0960
      8 C          63.0177   85.7705   12.4566 C.3     1  UNL1        0.1161
      9 C          62.7744   81.0816   11.7047 C.ar    1  UNL1        0.3213
     10 N          62.0378   80.3516   12.7885 N.ar    1  UNL1       -0.1902
     11 C          61.7142   81.0492   14.0765 C.ar    1  UNL1        0.1361
     12 C          62.1271   82.4766   14.2806 C.ar    1  UNL1        0.1908
     13 F          61.8035   83.1742   15.5685 F       1  UNL1       -0.1996
     14 C          62.8637   83.2067   13.1968 C.ar    1  UNL1        0.1661
     15 N          63.1873   82.5091   11.9089 N.ar    1  UNL1       -0.1769
     16 C          62.7440   78.9375   10.2379 C.3     1  UNL1        0.2559
     17 O          63.0980   80.3840   10.4168 O.3     1  UNL1       -0.4426
     18 C          64.9605   90.4551   14.2332 C.ar    1  UNL1        0.0841
     19 C          65.0297   91.0251   15.6190 C.ar    1  UNL1        0.0192
     20 C          65.4427   92.4526   15.8230 C.ar    1  UNL1        0.0029
     21 C          65.7864   93.3102   14.6413 C.ar    1  UNL1        0.0184
     22 C          65.7171   92.7403   13.2555 C.ar    1  UNL1        0.1072
     23 C          65.3041   91.3127   13.0515 C.ar    1  UNL1        0.0375
     24 S          66.0608   93.5978   12.0738 S.O2    1  UNL1        0.0105
     25 C          66.4044   94.4553   10.8920 C.3     1  UNL1        0.1816
     26 O          66.3246   94.7554   12.9905 O.2     1  UNL1       -0.1686
     27 O          65.7969   92.4401   11.1571 O.2     1  UNL1       -0.1686
     28 C          62.3004   85.6789   11.1424 C.3     1  UNL1        0.0240
     29 C          62.8809   84.8616   10.0265 C.3     1  UNL1        0.0021
     30 C          61.0027   86.4045   10.9441 C.3     1  UNL1        0.0021
@<TRIPOS>BOND
     1    16    17    1
     2    17     9    1
     3     9    10   ar
     4    10    11   ar
     5    11    12   ar
     6    12    13    1
     7    12    14   ar
     8    14     1    1
     9     1     2    1
    10     2     3    1
    11     3     4   ar
    12     4     5   ar
    13     5    18    1
    14    18    19   ar
    15    19    20   ar
    16    20    21   ar
    17    21    22   ar
    18    22    24    1
    19    24    25    1
    20    24    26    2
    21    24    27    2
    22    22    23   ar
    23     5     6   ar
    24     6     7   ar
    25     7     8    1
    26     8    28    1
    27    28    29    1
    28    28    30    1
    29    14    15   ar
    30    15     9   ar
    31     8     1    1
    32     7     3   ar
    33    23    18   ar
@<TRIPOS>MOLECULE
*****
 30 33 0 0 0
SMALL
GASTEIGER

@<TRIPOS>ATOM
      1 N          64.5121   89.0473   14.0926 N.pl3   1  UNL1       -0.2834
      2 C          64.9277   87.9072   14.9745 C.3     1  UNL1        0.1221
      3 C          64.2687   86.6608   14.4624 C.ar    1  UNL1        0.0337
      4 C          64.1184   85.1860   14.6910 C.ar    1  UNL1        0.0990
      5 N          63.2025   84.6442   13.6338 N.ar    1  UNL1       -0.2287
      6 N          62.7868   85.7841   12.7519 N.ar    1  UNL1       -0.1681
      7 C          63.4458   87.0305   13.2640 C.ar    1  UNL1        0.0960
      8 C          63.5962   88.5053   13.0354 C.3     1  UNL1        0.1161
      9 C          66.1009   92.5914   13.2775 C.ar    1  UNL1        0.3213
     10 N          65.7886   93.3391   14.5398 N.ar    1  UNL1       -0.1902
     11 C          65.0508   92.6561   15.6531 C.ar    1  UNL1        0.1361
     12 C          64.6253   91.2256   15.5040 C.ar    1  UNL1        0.1908
     13 F          63.8876   90.5426   16.6172 F       1  UNL1       -0.1996
     14 C          64.9376   90.4778   14.2417 C.ar    1  UNL1        0.1661
     15 N          65.6753   91.1608   13.1285 N.ar    1  UNL1       -0.1769
     16 C          66.2741   94.5167   11.5418 C.3     1  UNL1        0.2559
     17 O          66.8387   93.2744   12.1643 O.3     1  UNL1       -0.4426
     18 C          62.7770   83.2136   13.4847 C.ar    1  UNL1        0.0841
     19 C          62.0416   82.5298   14.5990 C.ar    1  UNL1        0.0192
     20 C          61.6161   81.0991   14.4498 C.ar    1  UNL1        0.0029
     21 C          61.9260   80.3523   13.1864 C.ar    1  UNL1        0.0184
     22 C          62.6613   81.0360   12.0721 C.ar    1  UNL1        0.1072
     23 C          63.0868   82.4667   12.2213 C.ar    1  UNL1        0.0375
     24 S          62.9712   80.2892   10.8087 S.O2    1  UNL1        0.0105
     25 C          63.2812   79.5425    9.5453 C.3     1  UNL1        0.1816
     26 O          62.5149   79.0129   11.4511 O.2     1  UNL1       -0.1686
     27 O          63.4277   81.5657   10.1663 O.2     1  UNL1       -0.1686
     28 C          62.9450   89.2990   11.9418 C.3     1  UNL1        0.0240
     29 C          62.5758   88.6327   10.6495 C.3     1  UNL1        0.0021
     30 C          62.6631   90.7588   12.1403 C.3     1  UNL1        0.0021
@<TRIPOS>BOND
     1    16    17    1
     2    17     9    1
     3     9    10   ar
     4    10    11   ar
     5    11    12   ar
     6    12    13    1
     7    12    14   ar
     8    14     1    1
     9     1     2    1
    10     2     3    1
    11     3     4   ar
    12     4     5   ar
    13     5    18    1
    14    18    19   ar
    15    19    20   ar
    16    20    21   ar
    17    21    22   ar
    18    22    24    1
    19    24    25    1
    20    24    26    2
    21    24    27    2
    22    22    23   ar
    23     5     6   ar
    24     6     7   ar
    25     7     8    1
    26     8    28    1
    27    28    29    1
    28    28    30    1
    29    14    15   ar
    30    15     9   ar
    31     8     1    1
    32     7     3   ar
    33    23    18   ar
@<TRIPOS>MOLECULE
*****
 30 33 0 0 0
SMALL
GASTEIGER

@<TRIPOS>ATOM
      1 N          63.3335   84.1345   13.3684 N.pl3   1  UNL1       -0.2834
      2 C          64.0033   84.5435   14.6467 C.3     1  UNL1        0.1221
      3 C          64.1657   86.0346   14.6285 C.ar    1  UNL1        0.0337
      4 C          64.6801   87.2088   15.4074 C.ar    1  UNL1        0.0990
      5 N          64.4285   88.4471   14.5991 N.ar    1  UNL1       -0.2287
      6 N          63.7587   88.0382   13.3208 N.ar    1  UNL1       -0.1681
      7 C          63.5963   86.5472   13.3390 C.ar    1  UNL1        0.0960
      8 C          63.0819   85.3729   12.5601 C.3     1  UNL1        0.1161
      9 C          62.9456   80.8408   11.1888 C.ar    1  UNL1        0.3213
     10 N          62.2661   79.9308   12.1687 N.ar    1  UNL1       -0.1902
     11 C          61.9424   80.4221   13.5485 C.ar    1  UNL1        0.1361
     12 C          62.2981   81.8233   13.9484 C.ar    1  UNL1        0.1908
     13 F          61.9744   82.3146   15.3282 F       1  UNL1       -0.1996
     14 C          62.9777   82.7333   12.9685 C.ar    1  UNL1        0.1661
     15 N          63.3014   82.2420   11.5887 N.ar    1  UNL1       -0.1769
     16 C          62.9791   78.9270    9.4321 C.3     1  UNL1        0.2559
     17 O          63.2694   80.3494    9.8090 O.3     1  UNL1       -0.4426
     18 C          64.7843   89.8484   14.9990 C.ar    1  UNL1        0.0841
     19 C          63.7593   90.7236   15.6573 C.ar    1  UNL1        0.0192
     20 C          64.1152   92.1249   16.0572 C.ar    1  UNL1        0.0029
     21 C          65.4959   92.6509   15.7987 C.ar    1  UNL1        0.0184
     22 C          66.5209   91.7757   15.1404 C.ar    1  UNL1        0.1072
     23 C          66.1650   90.3744   14.7405 C.ar    1  UNL1        0.0375
     24 S          67.9016   92.3016   14.8819 S.O2    1  UNL1        0.0105
     25 C          69.2824   92.8276   14.6235 C.3     1  UNL1        0.1816
     26 O          67.7047   92.0952   13.4093 O.2     1  UNL1       -0.1686
     27 O          68.0986   92.5081   16.3546 O.2     1  UNL1       -0.1686
     28 C          62.4304   85.4274   11.2101 C.3     1  UNL1        0.0240
     29 C          61.1547   86.1942   11.0234 C.3     1  UNL1        0.0021
     30 C          63.0545   84.7152   10.0468 C.3     1  UNL1        0.0021
@<TRIPOS>BOND
     1    16    17    1
     2    17     9    1
     3     9    10   ar
     4    10    11   ar
     5    11    12   ar
     6    12    13    1
     7    12    14   ar
     8    14     1    1
     9     1     2    1
    10     2     3    1
    11     3     4   ar
    12     4     5   ar
    13     5    18    1
    14    18    19   ar
    15    19    20   ar
    16    20    21   ar
    17    21    22   ar
    18    22    24    1
    19    24    25    1
    20    24    26    2
    21    24    27    2
    22    22    23   ar
    23     5     6   ar
    24     6     7   ar
    25     7     8    1
    26     8    28    1
    27    28    29    1
    28    28    30    1
    29    14    15   ar
    30    15     9   ar
    31     8     1    1
    32     7     3   ar
    33    23    18   ar
@<TRIPOS>MOLECULE
*****
 30 33 0 0 0
SMALL
GASTEIGER

@<TRIPOS>ATOM
      1 N          64.5212   90.9905   13.6289 N.pl3   1  UNL1       -0.2834
      2 C          64.1676   91.6371   12.3224 C.3     1  UNL1        0.1221
      3 C          63.2510   90.7107   11.5797 C.ar    1  UNL1        0.0337
      4 C          62.4660   90.5379   10.3132 C.ar    1  UNL1        0.0990
      5 N          61.7679   89.2118   10.3780 N.ar    1  UNL1       -0.2287
      6 N          62.1215   88.5651   11.6844 N.ar    1  UNL1       -0.1681
      7 C          63.0380   89.4915   12.4271 C.ar    1  UNL1        0.0960
      8 C          63.8230   89.6643   13.6936 C.3     1  UNL1        0.1161
      9 C          67.7716   92.3391   15.4634 C.ar    1  UNL1        0.3213
     10 N          67.2049   92.7242   16.7977 N.ar    1  UNL1       -0.1902
     11 C          65.7434   92.5314   17.0758 C.ar    1  UNL1        0.1361
     12 C          64.8489   91.9535   16.0195 C.ar    1  UNL1        0.1908
     13 F          63.3876   91.7607   16.2975 F       1  UNL1       -0.1996
     14 C          65.4157   91.5684   14.6851 C.ar    1  UNL1        0.1661
     15 N          66.8770   91.7612   14.4071 N.ar    1  UNL1       -0.1769
     16 C          69.9337   93.7637   15.6767 C.3     1  UNL1        0.2559
     17 O          69.2330   92.5319   15.1854 O.3     1  UNL1       -0.4426
     18 C          60.8734   88.6339    9.3217 C.ar    1  UNL1        0.0841
     19 C          60.5807   87.1628    9.3094 C.ar    1  UNL1        0.0192
     20 C          59.6861   86.5849    8.2530 C.ar    1  UNL1        0.0029
     21 C          59.0842   87.4781    7.2091 C.ar    1  UNL1        0.0184
     22 C          59.3768   88.9492    7.2213 C.ar    1  UNL1        0.1072
     23 C          60.2714   89.5270    8.2777 C.ar    1  UNL1        0.0375
     24 S          58.7750   89.8424    6.1774 S.O2    1  UNL1        0.0105
     25 C          58.1730   90.7356    5.1335 C.3     1  UNL1        0.1816
     26 O          60.1489   90.2265    5.7139 O.2     1  UNL1       -0.1686
     27 O          57.4010   89.4583    6.6410 O.2     1  UNL1       -0.1686
     28 C          63.8969   88.6834   14.8259 C.3     1  UNL1        0.0240
     29 C          63.2556   89.0080   16.1426 C.3     1  UNL1        0.0021
     30 C          64.6121   87.3778   14.6417 C.3     1  UNL1        0.0021
@<TRIPOS>BOND
     1    16    17    1
     2    17     9    1
     3     9    10   ar
     4    10    11   ar
     5    11    12   ar
     6    12    13    1
     7    12    14   ar
     8    14     1    1
     9     1     2    1
    10     2     3    1
    11     3     4   ar
    12     4     5   ar
    13     5    18    1
    14    18    19   ar
    15    19    20   ar
    16    20    21   ar
    17    21    22   ar
    18    22    24    1
    19    24    25    1
    20    24    26    2
    21    24    27    2
    22    22    23   ar
    23     5     6   ar
    24     6     7   ar
    25     7     8    1
    26     8    28    1
    27    28    29    1
    28    28    30    1
    29    14    15   ar
    30    15     9   ar
    31     8     1    1
    32     7     3   ar
    33    23    18   ar
@<TRIPOS>MOLECULE
*****
 30 33 0 0 0
SMALL
GASTEIGER

@<TRIPOS>ATOM
      1 N          63.0939   84.0139   13.6936 N.pl3   1  UNL1       -0.2834
      2 C          63.7135   84.7598   14.8381 C.3     1  UNL1        0.1221
      3 C          63.9314   86.1787   14.4030 C.ar    1  UNL1        0.0337
      4 C          64.4490   87.5166   14.8415 C.ar    1  UNL1        0.0990
      5 N          64.2839   88.4745   13.6990 N.ar    1  UNL1       -0.2287
      6 N          63.6643   87.7287   12.5546 N.ar    1  UNL1       -0.1681
      7 C          63.4464   86.3098   12.9896 C.ar    1  UNL1        0.0960
      8 C          62.9288   84.9720   12.5512 C.3     1  UNL1        0.1161
      9 C          60.9801   80.6961   14.2171 C.ar    1  UNL1        0.3213
     10 N          61.9338   79.6661   13.6884 N.ar    1  UNL1       -0.1902
     11 C          63.2743   80.0854   13.1614 C.ar    1  UNL1        0.1361
     12 C          63.6609   81.5346   13.1632 C.ar    1  UNL1        0.1908
     13 F          65.0012   81.9539   12.6363 F       1  UNL1       -0.1996
     14 C          62.7072   82.5647   13.6919 C.ar    1  UNL1        0.1661
     15 N          61.3669   82.1454   14.2188 N.ar    1  UNL1       -0.1769
     16 C          58.3893   80.6871   14.0245 C.3     1  UNL1        0.2559
     17 O          59.6398   80.2768   14.7440 O.3     1  UNL1       -0.4426
     18 C          64.6706   89.9238   13.7008 C.ar    1  UNL1        0.0841
     19 C          63.9688   90.8883   12.7913 C.ar    1  UNL1        0.0192
     20 C          64.3556   92.3377   12.7931 C.ar    1  UNL1        0.0029
     21 C          65.4440   92.8224   13.7043 C.ar    1  UNL1        0.0184
     22 C          66.1457   91.8579   14.6138 C.ar    1  UNL1        0.1072
     23 C          65.7590   90.4086   14.6120 C.ar    1  UNL1        0.0375
     24 S          67.2341   92.3426   15.5250 S.O2    1  UNL1        0.0105
     25 C          68.3225   92.8273   16.4364 C.3     1  UNL1        0.1816
     26 O          68.2600   91.9808   14.4923 O.2     1  UNL1       -0.1686
     27 O          66.2082   92.7044   16.5579 O.2     1  UNL1       -0.1686
     28 C          62.3480   84.6488   11.2065 C.3     1  UNL1        0.0240
     29 C          61.3819   85.5964   10.5594 C.3     1  UNL1        0.0021
     30 C          62.7333   83.3781   10.5088 C.3     1  UNL1        0.0021
@<TRIPOS>BOND
     1    16    17    1
     2    17     9    1
     3     9    10   ar
     4    10    11   ar
     5    11    12   ar
     6    12    13    1
     7    12    14   ar
     8    14     1    1
     9     1     2    1
    10     2     3    1
    11     3     4   ar
    12     4     5   ar
    13     5    18    1
    14    18    19   ar
    15    19    20   ar
    16    20    21   ar
    17    21    22   ar
    18    22    24    1
    19    24    25    1
    20    24    26    2
    21    24    27    2
    22    22    23   ar
    23     5     6   ar
    24     6     7   ar
    25     7     8    1
    26     8    28    1
    27    28    29    1
    28    28    30    1
    29    14    15   ar
    30    15     9   ar
    31     8     1    1
    32     7     3   ar
    33    23    18   ar
