@<TRIPOS>MOLECULE
*****
 26 29 0 0 0
SMALL
GASTEIGER

@<TRIPOS>ATOM
      1 C          63.5099   91.2907   10.0821 C.3     1  UNL1        0.0497
      2 C          64.3378   91.6513   11.2798 C.ar    1  UNL1        0.0342
      3 C          64.1321   91.1482   12.6779 C.ar    1  UNL1       -0.0031
      4 C          65.1840   91.7644   13.5518 C.ar    1  UNL1        0.0155
      5 C          65.4730   91.6348   15.0180 C.ar    1  UNL1        0.0308
      6 C          66.6180   92.3891   15.6262 C.ar    1  UNL1        0.1402
      7 F          66.9072   92.2596   17.0923 F       1  UNL1       -0.2042
      8 C          67.4740   93.2731   14.7683 C.ar    1  UNL1        0.0311
      9 C          67.1849   93.4027   13.3020 C.ar    1  UNL1        0.0195
     10 C          66.0400   92.6484   12.6939 C.ar    1  UNL1        0.0598
     11 N          65.5170   92.5785   11.2897 N.ar    1  UNL1       -0.3256
     12 C          63.0622   90.1961   13.1238 C.3     1  UNL1        0.0732
     13 C          63.3830   88.7432   13.3142 C.ar    1  UNL1        0.0634
     14 C          64.2168   88.3060   14.4819 C.ar    1  UNL1        0.0151
     15 C          64.5376   86.8532   14.6724 C.ar    1  UNL1        0.0027
     16 C          64.0247   85.8374   13.6950 C.ar    1  UNL1        0.0177
     17 C          64.3455   84.3846   13.8854 C.ar    1  UNL1        0.0015
     18 C          63.8326   83.3689   12.9080 C.ar    1  UNL1        0.0001
     19 C          62.9988   83.8061   11.7402 C.ar    1  UNL1        0.0015
     20 C          62.6780   85.2589   11.5498 C.ar    1  UNL1        0.0191
     21 C          63.1909   86.2746   12.5272 C.ar    1  UNL1        0.0809
     22 N          62.8701   87.7275   12.3368 N.ar    1  UNL1       -0.2493
     23 C          66.0752   93.3077   10.1037 C.3     1  UNL1        0.1474
     24 C          67.5237   93.1571    9.7442 C.2     1  UNL1        0.0732
     25 O          68.3803   94.3740    9.5567 O.co2   1  UNL1       -0.5472
     26 O          68.1155   91.7895    9.5722 O.co2   1  UNL1       -0.5472
@<TRIPOS>UNITY_ATOM_ATTR
25 1
charge -1
@<TRIPOS>BOND
     1     1     2    1
     2     2     3   ar
     3     3    12    1
     4    12    13    1
     5    13    14   ar
     6    14    15   ar
     7    15    16   ar
     8    16    17   ar
     9    17    18   ar
    10    18    19   ar
    11    19    20   ar
    12    20    21   ar
    13    21    22   ar
    14     3     4   ar
    15     4     5   ar
    16     5     6   ar
    17     6     7    1
    18     6     8   ar
    19     8     9   ar
    20     9    10   ar
    21    10    11   ar
    22    11    23    1
    23    23    24    1
    24    24    25   ar
    25    24    26   ar
    26    11     2   ar
    27    22    13   ar
    28    10     4   ar
    29    21    16   ar
@<TRIPOS>MOLECULE
*****
 26 29 0 0 0
SMALL
GASTEIGER

@<TRIPOS>ATOM
      1 C          63.5062   91.3422    9.9036 C.3     1  UNL1        0.0497
      2 C          64.2406   91.7028   11.1608 C.ar    1  UNL1        0.0342
      3 C          63.9738   91.1467   12.5282 C.ar    1  UNL1       -0.0031
      4 C          64.9391   91.7831   13.4839 C.ar    1  UNL1        0.0155
      5 C          65.1434   91.6207   14.9610 C.ar    1  UNL1        0.0308
      6 C          66.2111   92.4078   15.6614 C.ar    1  UNL1        0.1402
      7 F          66.4155   92.2455   17.1385 F       1  UNL1       -0.2042
      8 C          67.0745   93.3572   14.8847 C.ar    1  UNL1        0.0311
      9 C          66.8702   93.5196   13.4075 C.ar    1  UNL1        0.0195
     10 C          65.8025   92.7325   12.7072 C.ar    1  UNL1        0.0598
     11 N          65.3708   92.6829   11.2715 N.ar    1  UNL1       -0.3256
     12 C          62.9258   90.1323   12.8784 C.3     1  UNL1        0.0732
     13 C          62.0985   89.5044   11.7961 C.ar    1  UNL1        0.0634
     14 C          60.7707   90.0970   11.4278 C.ar    1  UNL1        0.0151
     15 C          59.9434   89.4692   10.3456 C.ar    1  UNL1        0.0027
     16 C          60.4439   88.2486    9.6315 C.ar    1  UNL1        0.0177
     17 C          59.6166   87.6207    8.5493 C.ar    1  UNL1        0.0015
     18 C          60.1172   86.4002    7.8353 C.ar    1  UNL1        0.0001
     19 C          61.4450   85.8076    8.2036 C.ar    1  UNL1        0.0015
     20 C          62.2723   86.4355    9.2858 C.ar    1  UNL1        0.0191
     21 C          61.7717   87.6560    9.9998 C.ar    1  UNL1        0.0809
     22 N          62.5991   88.2839   11.0821 N.ar    1  UNL1       -0.2493
     23 C          65.9649   93.4744   10.1443 C.3     1  UNL1        0.1474
     24 C          67.4120   93.3029    9.7885 C.2     1  UNL1        0.0732
     25 O          68.2823   94.5076    9.5852 O.co2   1  UNL1       -0.5472
     26 O          67.9889   91.9266    9.6360 O.co2   1  UNL1       -0.5472
@<TRIPOS>UNITY_ATOM_ATTR
25 1
charge -1
@<TRIPOS>BOND
     1     1     2    1
     2     2     3   ar
     3     3    12    1
     4    12    13    1
     5    13    14   ar
     6    14    15   ar
     7    15    16   ar
     8    16    17   ar
     9    17    18   ar
    10    18    19   ar
    11    19    20   ar
    12    20    21   ar
    13    21    22   ar
    14     3     4   ar
    15     4     5   ar
    16     5     6   ar
    17     6     7    1
    18     6     8   ar
    19     8     9   ar
    20     9    10   ar
    21    10    11   ar
    22    11    23    1
    23    23    24    1
    24    24    25   ar
    25    24    26   ar
    26    11     2   ar
    27    22    13   ar
    28    10     4   ar
    29    21    16   ar
@<TRIPOS>MOLECULE
*****
 26 29 0 0 0
SMALL
GASTEIGER

@<TRIPOS>ATOM
      1 C          66.5579   92.8969   14.0925 C.3     1  UNL1        0.0497
      2 C          65.4850   92.2192   13.2928 C.ar    1  UNL1        0.0342
      3 C          64.4514   91.2727   13.8277 C.ar    1  UNL1       -0.0031
      4 C          63.5849   90.8375   12.6832 C.ar    1  UNL1        0.0155
      5 C          62.4067   89.9119   12.6118 C.ar    1  UNL1        0.0308
      6 C          61.7265   89.6637   11.2981 C.ar    1  UNL1        0.1402
      7 F          60.5484   88.7381   11.2266 F       1  UNL1       -0.2042
      8 C          62.2245   90.3411   10.0559 C.ar    1  UNL1        0.0311
      9 C          63.4028   91.2668   10.1274 C.ar    1  UNL1        0.0195
     10 C          64.0829   91.5149   11.4410 C.ar    1  UNL1        0.0598
     11 N          65.2572   92.3688   11.8177 N.ar    1  UNL1       -0.3256
     12 C          64.3093   90.8379   15.2562 C.3     1  UNL1        0.0732
     13 C          63.9852   89.4087   15.5765 C.ar    1  UNL1        0.0634
     14 C          63.1410   89.0809   16.7723 C.ar    1  UNL1        0.0151
     15 C          62.8169   87.6519   17.0926 C.ar    1  UNL1        0.0027
     16 C          63.3371   86.5504   16.2170 C.ar    1  UNL1        0.0177
     17 C          63.0130   85.1214   16.5373 C.ar    1  UNL1        0.0015
     18 C          63.5331   84.0200   15.6618 C.ar    1  UNL1        0.0001
     19 C          64.3773   84.3478   14.4660 C.ar    1  UNL1        0.0015
     20 C          64.7014   85.7769   14.1458 C.ar    1  UNL1        0.0191
     21 C          64.1813   86.8782   15.0213 C.ar    1  UNL1        0.0809
     22 N          64.5053   88.3074   14.7010 N.ar    1  UNL1       -0.2493
     23 C          66.0624   93.2225   10.8834 C.3     1  UNL1        0.1474
     24 C          67.3969   92.7446   10.3928 C.2     1  UNL1        0.0732
     25 O          67.8169   93.0154    8.9785 O.co2   1  UNL1       -0.5472
     26 O          68.3115   91.9960   11.3164 O.co2   1  UNL1       -0.5472
@<TRIPOS>UNITY_ATOM_ATTR
25 1
charge -1
@<TRIPOS>BOND
     1     1     2    1
     2     2     3   ar
     3     3    12    1
     4    12    13    1
     5    13    14   ar
     6    14    15   ar
     7    15    16   ar
     8    16    17   ar
     9    17    18   ar
    10    18    19   ar
    11    19    20   ar
    12    20    21   ar
    13    21    22   ar
    14     3     4   ar
    15     4     5   ar
    16     5     6   ar
    17     6     7    1
    18     6     8   ar
    19     8     9   ar
    20     9    10   ar
    21    10    11   ar
    22    11    23    1
    23    23    24    1
    24    24    25   ar
    25    24    26   ar
    26    11     2   ar
    27    22    13   ar
    28    10     4   ar
    29    21    16   ar
@<TRIPOS>MOLECULE
*****
 26 29 0 0 0
SMALL
GASTEIGER

@<TRIPOS>ATOM
      1 C          63.2760   91.2477    9.6756 C.3     1  UNL1        0.0497
      2 C          63.4735   91.0685   11.1518 C.ar    1  UNL1        0.0342
      3 C          62.7600   90.0776   12.0230 C.ar    1  UNL1       -0.0031
      4 C          63.2647   90.2454   13.4255 C.ar    1  UNL1        0.0155
      5 C          62.9230   89.5429   14.7059 C.ar    1  UNL1        0.0308
      6 C          63.6068   89.9351   15.9821 C.ar    1  UNL1        0.1402
      7 F          63.2652   89.2326   17.2626 F       1  UNL1       -0.2042
      8 C          64.6323   91.0298   15.9778 C.ar    1  UNL1        0.0311
      9 C          64.9740   91.7323   14.6972 C.ar    1  UNL1        0.0195
     10 C          64.2902   91.3401   13.4211 C.ar    1  UNL1        0.0598
     11 N          64.4193   91.8488   12.0159 N.ar    1  UNL1       -0.3256
     12 C          61.7236   89.0918   11.5710 C.3     1  UNL1        0.0732
     13 C          62.1409   87.7378   11.0783 C.ar    1  UNL1        0.0634
     14 C          62.1236   87.4362    9.6090 C.ar    1  UNL1        0.0151
     15 C          62.5408   86.0823    9.1163 C.ar    1  UNL1        0.0027
     16 C          62.9753   85.0299   10.0928 C.ar    1  UNL1        0.0177
     17 C          63.3926   83.6760    9.6001 C.ar    1  UNL1        0.0015
     18 C          63.8271   82.6236   10.5767 C.ar    1  UNL1        0.0001
     19 C          63.8444   82.9252   12.0459 C.ar    1  UNL1        0.0015
     20 C          63.4272   84.2791   12.5387 C.ar    1  UNL1        0.0191
     21 C          62.9927   85.3315   11.5621 C.ar    1  UNL1        0.0809
     22 N          62.5754   86.6855   12.0548 N.ar    1  UNL1       -0.2493
     23 C          65.3335   92.9453   11.5556 C.3     1  UNL1        0.1474
     24 C          66.7838   92.6566   11.3043 C.2     1  UNL1        0.0732
     25 O          67.7157   92.4358   12.4588 O.co2   1  UNL1       -0.5472
     26 O          67.3023   92.5885    9.8984 O.co2   1  UNL1       -0.5472
@<TRIPOS>UNITY_ATOM_ATTR
25 1
charge -1
@<TRIPOS>BOND
     1     1     2    1
     2     2     3   ar
     3     3    12    1
     4    12    13    1
     5    13    14   ar
     6    14    15   ar
     7    15    16   ar
     8    16    17   ar
     9    17    18   ar
    10    18    19   ar
    11    19    20   ar
    12    20    21   ar
    13    21    22   ar
    14     3     4   ar
    15     4     5   ar
    16     5     6   ar
    17     6     7    1
    18     6     8   ar
    19     8     9   ar
    20     9    10   ar
    21    10    11   ar
    22    11    23    1
    23    23    24    1
    24    24    25   ar
    25    24    26   ar
    26    11     2   ar
    27    22    13   ar
    28    10     4   ar
    29    21    16   ar
@<TRIPOS>MOLECULE
*****
 26 29 0 0 0
SMALL
GASTEIGER

@<TRIPOS>ATOM
      1 C          59.9623   88.9737    8.4030 C.3     1  UNL1        0.0497
      2 C          60.7180   88.0210    9.2814 C.ar    1  UNL1        0.0342
      3 C          61.3432   88.3489   10.6050 C.ar    1  UNL1       -0.0031
      4 C          61.9927   87.1037   11.1319 C.ar    1  UNL1        0.0155
      5 C          62.7590   86.8275   12.3915 C.ar    1  UNL1        0.0308
      6 C          63.3015   85.4537   12.6533 C.ar    1  UNL1        0.1402
      7 F          64.0677   85.1774   13.9128 F       1  UNL1       -0.2042
      8 C          63.0777   84.3563   11.6555 C.ar    1  UNL1        0.0311
      9 C          62.3114   84.6326   10.3959 C.ar    1  UNL1        0.0195
     10 C          61.7689   86.0063   10.1342 C.ar    1  UNL1        0.0598
     11 N          60.9811   86.5732    8.9905 N.ar    1  UNL1       -0.3256
     12 C          61.3225   89.6870   11.2825 C.3     1  UNL1        0.0732
     13 C          62.6071   90.4182   11.5380 C.ar    1  UNL1        0.0634
     14 C          63.2201   91.2578   10.4567 C.ar    1  UNL1        0.0151
     15 C          64.5047   91.9889   10.7122 C.ar    1  UNL1        0.0027
     16 C          65.1763   91.8806   12.0491 C.ar    1  UNL1        0.0177
     17 C          66.4608   92.6117   12.3046 C.ar    1  UNL1        0.0015
     18 C          67.1323   92.5033   13.6415 C.ar    1  UNL1        0.0001
     19 C          66.5193   91.6638   14.7229 C.ar    1  UNL1        0.0015
     20 C          65.2348   90.9326   14.4674 C.ar    1  UNL1        0.0191
     21 C          64.5632   91.0410   13.1305 C.ar    1  UNL1        0.0809
     22 N          63.2786   90.3098   12.8749 N.ar    1  UNL1       -0.2493
     23 C          60.5348   85.8239    7.7701 C.3     1  UNL1        0.1474
     24 C          61.5235   85.0164    6.9824 C.2     1  UNL1        0.0732
     25 O          61.0490   84.1214    5.8761 O.co2   1  UNL1       -0.5472
     26 O          62.9866   85.1039    7.3010 O.co2   1  UNL1       -0.5472
@<TRIPOS>UNITY_ATOM_ATTR
25 1
charge -1
@<TRIPOS>BOND
     1     1     2    1
     2     2     3   ar
     3     3    12    1
     4    12    13    1
     5    13    14   ar
     6    14    15   ar
     7    15    16   ar
     8    16    17   ar
     9    17    18   ar
    10    18    19   ar
    11    19    20   ar
    12    20    21   ar
    13    21    22   ar
    14     3     4   ar
    15     4     5   ar
    16     5     6   ar
    17     6     7    1
    18     6     8   ar
    19     8     9   ar
    20     9    10   ar
    21    10    11   ar
    22    11    23    1
    23    23    24    1
    24    24    25   ar
    25    24    26   ar
    26    11     2   ar
    27    22    13   ar
    28    10     4   ar
    29    21    16   ar
@<TRIPOS>MOLECULE
*****
 26 29 0 0 0
SMALL
GASTEIGER

@<TRIPOS>ATOM
      1 C          63.5501   87.9323   12.9365 C.3     1  UNL1        0.0497
      2 C          62.6500   87.8424   11.7399 C.ar    1  UNL1        0.0342
      3 C          61.9221   88.9852   11.0962 C.ar    1  UNL1       -0.0031
      4 C          61.1419   88.4429    9.9355 C.ar    1  UNL1        0.0155
      5 C          60.2396   89.1040    8.9362 C.ar    1  UNL1        0.0308
      6 C          59.5829   88.2872    7.8631 C.ar    1  UNL1        0.1402
      7 F          58.6805   88.9482    6.8637 F       1  UNL1       -0.2042
      8 C          59.8286   86.8093    7.7893 C.ar    1  UNL1        0.0311
      9 C          60.7310   86.1482    8.7887 C.ar    1  UNL1        0.0195
     10 C          61.3876   86.9650    9.8617 C.ar    1  UNL1        0.0598
     11 N          62.3196   86.5939   10.9769 N.ar    1  UNL1       -0.3256
     12 C          61.9665   90.4186   11.5361 C.3     1  UNL1        0.0732
     13 C          63.2722   91.0409   11.9338 C.ar    1  UNL1        0.0634
     14 C          64.1682   91.6367   10.8887 C.ar    1  UNL1        0.0151
     15 C          65.4738   92.2590   11.2864 C.ar    1  UNL1        0.0027
     16 C          65.8834   92.2855   12.7292 C.ar    1  UNL1        0.0177
     17 C          67.1890   92.9078   13.1268 C.ar    1  UNL1        0.0015
     18 C          67.5986   92.9343   14.5695 C.ar    1  UNL1        0.0001
     19 C          66.7026   92.3385   15.6146 C.ar    1  UNL1        0.0015
     20 C          65.3970   91.7162   15.2170 C.ar    1  UNL1        0.0191
     21 C          64.9874   91.6897   13.7743 C.ar    1  UNL1        0.0809
     22 N          63.6817   91.0674   13.3766 N.ar    1  UNL1       -0.2493
     23 C          62.8315   85.2161   11.2765 C.3     1  UNL1        0.1474
     24 C          63.0895   84.8040   12.6956 C.2     1  UNL1        0.0732
     25 O          64.4316   84.2599   13.0863 O.co2   1  UNL1       -0.5472
     26 O          62.0055   84.9361   13.7239 O.co2   1  UNL1       -0.5472
@<TRIPOS>UNITY_ATOM_ATTR
25 1
charge -1
@<TRIPOS>BOND
     1     1     2    1
     2     2     3   ar
     3     3    12    1
     4    12    13    1
     5    13    14   ar
     6    14    15   ar
     7    15    16   ar
     8    16    17   ar
     9    17    18   ar
    10    18    19   ar
    11    19    20   ar
    12    20    21   ar
    13    21    22   ar
    14     3     4   ar
    15     4     5   ar
    16     5     6   ar
    17     6     7    1
    18     6     8   ar
    19     8     9   ar
    20     9    10   ar
    21    10    11   ar
    22    11    23    1
    23    23    24    1
    24    24    25   ar
    25    24    26   ar
    26    11     2   ar
    27    22    13   ar
    28    10     4   ar
    29    21    16   ar
@<TRIPOS>MOLECULE
*****
 26 29 0 0 0
SMALL
GASTEIGER

@<TRIPOS>ATOM
      1 C          62.7920   91.0234    9.4557 C.3     1  UNL1        0.0497
      2 C          63.1906   90.9927   10.9014 C.ar    1  UNL1        0.0342
      3 C          62.4581   90.2858   12.0033 C.ar    1  UNL1       -0.0031
      4 C          63.2065   90.5198   13.2820 C.ar    1  UNL1        0.0155
      5 C          62.9542   90.0675   14.6897 C.ar    1  UNL1        0.0308
      6 C          63.8969   90.4667   15.7860 C.ar    1  UNL1        0.1402
      7 F          63.6447   90.0145   17.1938 F       1  UNL1       -0.2042
      8 C          65.0919   91.3182   15.4746 C.ar    1  UNL1        0.0311
      9 C          65.3442   91.7705   14.0668 C.ar    1  UNL1        0.0195
     10 C          64.4015   91.3713   12.9706 C.ar    1  UNL1        0.0598
     11 N          64.3917   91.6636   11.4993 N.ar    1  UNL1       -0.3256
     12 C          61.1984   89.4855   11.8527 C.3     1  UNL1        0.0732
     13 C          61.0353   88.5560   10.6867 C.ar    1  UNL1        0.0634
     14 C          59.7793   88.5938    9.8674 C.ar    1  UNL1        0.0151
     15 C          59.6161   87.6644    8.7015 C.ar    1  UNL1        0.0027
     16 C          60.7089   86.6971    8.3547 C.ar    1  UNL1        0.0177
     17 C          60.5457   85.7677    7.1888 C.ar    1  UNL1        0.0015
     18 C          61.6385   84.8004    6.8420 C.ar    1  UNL1        0.0001
     19 C          62.8944   84.7626    7.6613 C.ar    1  UNL1        0.0015
     20 C          63.0576   85.6920    8.8272 C.ar    1  UNL1        0.0191
     21 C          61.9648   86.6592    9.1739 C.ar    1  UNL1        0.0809
     22 N          62.1280   87.5887   10.3400 N.ar    1  UNL1       -0.2493
     23 C          65.4049   92.4828   10.7564 C.3     1  UNL1        0.1474
     24 C          66.5943   93.0413   11.4800 C.2     1  UNL1        0.0732
     25 O          67.8546   92.2348   11.5857 O.co2   1  UNL1       -0.5472
     26 O          66.5233   94.4063   12.0979 O.co2   1  UNL1       -0.5472
@<TRIPOS>UNITY_ATOM_ATTR
25 1
charge -1
@<TRIPOS>BOND
     1     1     2    1
     2     2     3   ar
     3     3    12    1
     4    12    13    1
     5    13    14   ar
     6    14    15   ar
     7    15    16   ar
     8    16    17   ar
     9    17    18   ar
    10    18    19   ar
    11    19    20   ar
    12    20    21   ar
    13    21    22   ar
    14     3     4   ar
    15     4     5   ar
    16     5     6   ar
    17     6     7    1
    18     6     8   ar
    19     8     9   ar
    20     9    10   ar
    21    10    11   ar
    22    11    23    1
    23    23    24    1
    24    24    25   ar
    25    24    26   ar
    26    11     2   ar
    27    22    13   ar
    28    10     4   ar
    29    21    16   ar
@<TRIPOS>MOLECULE
*****
 26 29 0 0 0
SMALL
GASTEIGER

@<TRIPOS>ATOM
      1 C          61.2665   88.3944    8.8695 C.3     1  UNL1        0.0497
      2 C          61.8772   87.2592    9.6366 C.ar    1  UNL1        0.0342
      3 C          62.1381   87.2325   11.1136 C.ar    1  UNL1       -0.0031
      4 C          62.7563   85.9082   11.4513 C.ar    1  UNL1        0.0155
      5 C          63.2246   85.3211   12.7497 C.ar    1  UNL1        0.0308
      6 C          63.8141   83.9421   12.7800 C.ar    1  UNL1        0.1402
      7 F          64.2823   83.3549   14.0783 F       1  UNL1       -0.2042
      8 C          63.9353   83.1503   11.5118 C.ar    1  UNL1        0.0311
      9 C          63.4671   83.7375   10.2132 C.ar    1  UNL1        0.0195
     10 C          62.8776   85.1164   10.1831 C.ar    1  UNL1        0.0598
     11 N          62.3343   85.9514    9.0616 N.ar    1  UNL1       -0.3256
     12 C          61.8340   88.3364   12.0827 C.3     1  UNL1        0.0732
     13 C          62.8694   89.3805   12.3791 C.ar    1  UNL1        0.0634
     14 C          63.5646   89.3913   13.7083 C.ar    1  UNL1        0.0151
     15 C          64.5999   90.4354   14.0047 C.ar    1  UNL1        0.0027
     16 C          64.9402   91.4687   12.9720 C.ar    1  UNL1        0.0177
     17 C          65.9755   92.5128   13.2684 C.ar    1  UNL1        0.0015
     18 C          66.3158   93.5460   12.2357 C.ar    1  UNL1        0.0001
     19 C          65.6206   93.5352   10.9065 C.ar    1  UNL1        0.0015
     20 C          64.5853   92.4912   10.6101 C.ar    1  UNL1        0.0191
     21 C          64.2451   91.4579   11.6428 C.ar    1  UNL1        0.0809
     22 N          63.2097   90.4138   11.3464 N.ar    1  UNL1       -0.2493
     23 C          62.2609   85.5491    7.6184 C.3     1  UNL1        0.1474
     24 C          60.9496   85.1309    7.0221 C.2     1  UNL1        0.0732
     25 O          59.6778   85.7862    7.4726 O.co2   1  UNL1       -0.5472
     26 O          60.9101   84.0574    5.9752 O.co2   1  UNL1       -0.5472
@<TRIPOS>UNITY_ATOM_ATTR
25 1
charge -1
@<TRIPOS>BOND
     1     1     2    1
     2     2     3   ar
     3     3    12    1
     4    12    13    1
     5    13    14   ar
     6    14    15   ar
     7    15    16   ar
     8    16    17   ar
     9    17    18   ar
    10    18    19   ar
    11    19    20   ar
    12    20    21   ar
    13    21    22   ar
    14     3     4   ar
    15     4     5   ar
    16     5     6   ar
    17     6     7    1
    18     6     8   ar
    19     8     9   ar
    20     9    10   ar
    21    10    11   ar
    22    11    23    1
    23    23    24    1
    24    24    25   ar
    25    24    26   ar
    26    11     2   ar
    27    22    13   ar
    28    10     4   ar
    29    21    16   ar
@<TRIPOS>MOLECULE
*****
 26 29 0 0 0
SMALL
GASTEIGER

@<TRIPOS>ATOM
      1 C          64.3718   87.9944   14.3447 C.3     1  UNL1        0.0497
      2 C          63.5480   87.7581   13.1136 C.ar    1  UNL1        0.0342
      3 C          62.9592   88.8176   12.2298 C.ar    1  UNL1       -0.0031
      4 C          62.2157   88.1351   11.1202 C.ar    1  UNL1        0.0155
      5 C          61.4377   88.6711    9.9551 C.ar    1  UNL1        0.0308
      6 C          60.7888   87.7259    8.9879 C.ar    1  UNL1        0.1402
      7 F          60.0108   88.2618    7.8228 F       1  UNL1       -0.2042
      8 C          60.9179   86.2446    9.1858 C.ar    1  UNL1        0.0311
      9 C          61.6960   85.7086   10.3510 C.ar    1  UNL1        0.0195
     10 C          62.3448   86.6538   11.3181 C.ar    1  UNL1        0.0598
     11 N          63.1682   86.4208   12.5500 N.ar    1  UNL1       -0.3256
     12 C          63.0910   90.2994   12.4220 C.3     1  UNL1        0.0732
     13 C          64.0816   90.8425   13.4088 C.ar    1  UNL1        0.0634
     14 C          63.6692   91.0820   14.8310 C.ar    1  UNL1        0.0151
     15 C          64.6598   91.6251   15.8178 C.ar    1  UNL1        0.0027
     16 C          66.0628   91.9288   15.3825 C.ar    1  UNL1        0.0177
     17 C          67.0533   92.4719   16.3693 C.ar    1  UNL1        0.0015
     18 C          68.4562   92.7756   15.9339 C.ar    1  UNL1        0.0001
     19 C          68.8686   92.5361   14.5117 C.ar    1  UNL1        0.0015
     20 C          67.8780   91.9930   13.5249 C.ar    1  UNL1        0.0191
     21 C          66.4751   91.6894   13.9603 C.ar    1  UNL1        0.0809
     22 N          65.4845   91.1462   12.9734 N.ar    1  UNL1       -0.2493
     23 C          63.5456   85.0851   13.1187 C.3     1  UNL1        0.1474
     24 C          63.1804   84.7416   14.5325 C.2     1  UNL1        0.0732
     25 O          61.7446   84.7741   14.9653 O.co2   1  UNL1       -0.5472
     26 O          64.2511   84.3656   15.5134 O.co2   1  UNL1       -0.5472
@<TRIPOS>UNITY_ATOM_ATTR
25 1
charge -1
@<TRIPOS>BOND
     1     1     2    1
     2     2     3   ar
     3     3    12    1
     4    12    13    1
     5    13    14   ar
     6    14    15   ar
     7    15    16   ar
     8    16    17   ar
     9    17    18   ar
    10    18    19   ar
    11    19    20   ar
    12    20    21   ar
    13    21    22   ar
    14     3     4   ar
    15     4     5   ar
    16     5     6   ar
    17     6     7    1
    18     6     8   ar
    19     8     9   ar
    20     9    10   ar
    21    10    11   ar
    22    11    23    1
    23    23    24    1
    24    24    25   ar
    25    24    26   ar
    26    11     2   ar
    27    22    13   ar
    28    10     4   ar
    29    21    16   ar
