@<TRIPOS>MOLECULE
*****
 34 38 0 0 0
SMALL
GASTEIGER

@<TRIPOS>ATOM
      1 C          63.0250   82.0079   12.5054 C.2     1  UNL1        0.1983
      2 C          62.7118   81.5673   13.9047 C.2     1  UNL1        0.0399
      3 C          62.6789   82.5723   15.0178 C.2     1  UNL1        0.0060
      4 C          62.9592   84.0178   14.7317 C.2     1  UNL1        0.0400
      5 C          62.9983   85.2272   15.6182 C.ar    1  UNL1        0.1047
      6 N          62.7703   85.4001   17.0906 N.ar    1  UNL1       -0.2223
      7 C          62.8796   86.7611   17.7116 C.ar    1  UNL1        0.2001
      8 N          63.2169   87.9491   16.8603 N.ar    1  UNL1       -0.2074
      9 C          63.4449   87.7762   15.3879 C.ar    1  UNL1        0.1528
     10 C          63.3356   86.4152   14.7668 C.ar    1  UNL1        0.1303
     11 N          63.5050   85.9400   13.3542 N.2     1  UNL1       -0.2380
     12 C          63.2724   84.4583   13.3324 C.2     1  UNL1        0.1442
     13 C          63.3053   83.4534   12.2193 C.3     1  UNL1        0.4053
     14 N          63.7823   88.9642   14.5365 N.pl3   1  UNL1       -0.2891
     15 C          64.8115   89.9516   15.0008 C.3     1  UNL1        0.1095
     16 C          65.1488   91.1397   14.1495 C.3     1  UNL1        0.0939
     17 N          64.4569   91.3403   12.8338 N.3     1  UNL1       -0.2695
     18 C          63.4277   90.3528   12.3695 C.3     1  UNL1        0.0939
     19 C          63.0904   89.1648   13.2209 C.3     1  UNL1        0.1095
     20 C          64.7943   92.5283   11.9825 C.3     1  UNL1        0.0769
     21 C          66.1896   93.0786   11.9818 C.3     1  UNL1        0.0437
     22 C          66.6230   94.0229   10.9000 C.ar    1  UNL1       -0.0184
     23 C          66.4341   95.5008   11.0745 C.ar    1  UNL1       -0.0018
     24 C          66.8674   96.4451    9.9926 C.ar    1  UNL1        0.0316
     25 C          67.4896   95.9116    8.7362 C.ar    1  UNL1        0.1674
     26 F          67.9229   96.8560    7.6544 F       1  UNL1       -0.2018
     27 C          67.6784   94.4339    8.5618 C.ar    1  UNL1        0.1671
     28 F          68.3005   93.9005    7.3055 F       1  UNL1       -0.2018
     29 C          67.2451   93.4895    9.6437 C.ar    1  UNL1        0.0277
     30 N          63.6185   83.8939   10.8201 N.pl3   1  UNL1        0.0675
     31 O          62.8090   84.9809   10.1771 O.2     1  UNL1        0.0362
     32 O          64.7410   83.2476   10.0639 O.co2   1  UNL1       -0.5803
     33 C          62.6625   79.5799   11.6547 C.3     1  UNL1        0.2523
     34 O          63.0579   81.0029   11.3923 O.2     1  UNL1       -0.4684
@<TRIPOS>UNITY_ATOM_ATTR
30 1
charge 1
32 1
charge -1
@<TRIPOS>BOND
     1    33    34    1
     2    34     1    1
     3     1     2    2
     4     2     3    1
     5     3     4    2
     6     4     5    1
     7     5     6   ar
     8     6     7   ar
     9     7     8   ar
    10     8     9   ar
    11     9    14    1
    12    14    15    1
    13    15    16    1
    14    16    17    1
    15    17    20    1
    16    20    21    1
    17    21    22    1
    18    22    23   ar
    19    23    24   ar
    20    24    25   ar
    21    25    26    1
    22    25    27   ar
    23    27    28    1
    24    27    29   ar
    25    17    18    1
    26    18    19    1
    27     9    10   ar
    28    10    11    1
    29    11    12    2
    30    12    13    1
    31    13    30    1
    32    30    31    2
    33    30    32    1
    34    13     1    1
    35    12     4    1
    36    10     5   ar
    37    19    14    1
    38    29    22   ar
@<TRIPOS>MOLECULE
*****
 34 38 0 0 0
SMALL
GASTEIGER

@<TRIPOS>ATOM
      1 C          72.0774   81.7307    6.6923 C.2     1  UNL1        0.1983
      2 C          72.2886   82.9172    7.5854 C.2     1  UNL1        0.0399
      3 C          72.4942   82.7203    9.0581 C.2     1  UNL1        0.0060
      4 C          72.4886   81.3368    9.6378 C.2     1  UNL1        0.0400
      5 C          72.6636   80.8357   11.0408 C.ar    1  UNL1        0.1047
      6 N          72.9035   81.5486   12.3386 N.ar    1  UNL1       -0.2223
      7 C          73.0404   80.7652   13.6104 C.ar    1  UNL1        0.2001
      8 N          72.9373   79.2690   13.5844 N.ar    1  UNL1       -0.2074
      9 C          72.6974   78.5561   12.2866 C.ar    1  UNL1        0.1528
     10 C          72.5606   79.3395   11.0148 C.ar    1  UNL1        0.1303
     11 N          72.3218   78.9159    9.5958 N.2     1  UNL1       -0.2380
     12 C          72.2773   80.1503    8.7448 C.2     1  UNL1        0.1442
     13 C          72.0718   80.3472    7.2720 C.3     1  UNL1        0.4053
     14 N          72.5944   77.0599   12.2606 N.pl3   1  UNL1       -0.2891
     15 C          73.6329   76.2489   11.5439 C.3     1  UNL1        0.1095
     16 C          73.5298   74.7527   11.5179 C.3     1  UNL1        0.0939
     17 N          72.3883   74.0674   12.2087 N.3     1  UNL1       -0.2695
     18 C          71.3498   74.8784   12.9255 C.3     1  UNL1        0.0939
     19 C          71.4528   76.3746   12.9515 C.3     1  UNL1        0.1095
     20 C          72.2852   72.5712   12.1827 C.3     1  UNL1        0.0769
     21 C          71.0966   71.8906   12.7940 C.3     1  UNL1        0.0437
     22 C          71.0645   71.6181   14.2687 C.ar    1  UNL1       -0.0184
     23 C          70.6561   72.7012   15.2228 C.ar    1  UNL1       -0.0018
     24 C          70.6240   72.4288   16.6975 C.ar    1  UNL1        0.0316
     25 C          71.0004   71.0733   17.2181 C.ar    1  UNL1        0.1674
     26 F          70.9683   70.8009   18.6928 F       1  UNL1       -0.2018
     27 C          71.4088   69.9903   16.2641 C.ar    1  UNL1        0.1671
     28 F          71.7851   68.6348   16.7847 F       1  UNL1       -0.2018
     29 C          71.4408   70.2627   14.7894 C.ar    1  UNL1        0.0277
     30 N          71.8605   79.1607    6.3789 N.pl3   1  UNL1        0.0675
     31 O          70.6058   79.0489    5.5645 O.2     1  UNL1        0.0362
     32 O          72.9040   78.0861    6.3002 O.co2   1  UNL1       -0.5803
     33 C          72.9923   81.6490    4.2620 C.3     1  UNL1        0.2523
     34 O          71.8718   81.9276    5.2196 O.2     1  UNL1       -0.4684
@<TRIPOS>UNITY_ATOM_ATTR
30 1
charge 1
32 1
charge -1
@<TRIPOS>BOND
     1    33    34    1
     2    34     1    1
     3     1     2    2
     4     2     3    1
     5     3     4    2
     6     4     5    1
     7     5     6   ar
     8     6     7   ar
     9     7     8   ar
    10     8     9   ar
    11     9    14    1
    12    14    15    1
    13    15    16    1
    14    16    17    1
    15    17    20    1
    16    20    21    1
    17    21    22    1
    18    22    23   ar
    19    23    24   ar
    20    24    25   ar
    21    25    26    1
    22    25    27   ar
    23    27    28    1
    24    27    29   ar
    25    17    18    1
    26    18    19    1
    27     9    10   ar
    28    10    11    1
    29    11    12    2
    30    12    13    1
    31    13    30    1
    32    30    31    2
    33    30    32    1
    34    13     1    1
    35    12     4    1
    36    10     5   ar
    37    19    14    1
    38    29    22   ar
@<TRIPOS>MOLECULE
*****
 34 38 0 0 0
SMALL
GASTEIGER

@<TRIPOS>ATOM
      1 C          61.9055   93.3618    1.5461 C.2     1  UNL1        0.1983
      2 C          60.5248   93.8164    1.1759 C.2     1  UNL1        0.0399
      3 C          59.3420   93.3449    1.9688 C.2     1  UNL1        0.0060
      4 C          59.5400   92.4187    3.1320 C.2     1  UNL1        0.0400
      5 C          58.5725   91.7917    4.0917 C.ar    1  UNL1        0.1047
      6 N          57.0800   91.8788    4.2128 N.ar    1  UNL1       -0.2223
      7 C          56.3702   91.1238    5.2972 C.ar    1  UNL1        0.2001
      8 N          57.1530   90.2817    6.2606 N.ar    1  UNL1       -0.2074
      9 C          58.6455   90.1946    6.1396 C.ar    1  UNL1        0.1528
     10 C          59.3553   90.9496    5.0551 C.ar    1  UNL1        0.1303
     11 N          60.8065   91.0562    4.6908 N.2     1  UNL1       -0.2380
     12 C          60.9206   91.9641    3.5023 C.2     1  UNL1        0.1442
     13 C          62.1034   92.4357    2.7093 C.3     1  UNL1        0.4053
     14 N          59.4283   89.3525    7.1029 N.pl3   1  UNL1       -0.2891
     15 C          59.4715   87.8628    6.9334 C.3     1  UNL1        0.1095
     16 C          60.2543   87.0207    7.8968 C.3     1  UNL1        0.0939
     17 N          60.9939   87.6683    9.0297 N.3     1  UNL1       -0.2695
     18 C          60.9507   89.1580    9.1993 C.3     1  UNL1        0.0939
     19 C          60.1679   90.0001    8.2359 C.3     1  UNL1        0.1095
     20 C          61.7766   86.8262    9.9931 C.3     1  UNL1        0.0769
     21 C          62.5519   85.6422    9.4961 C.3     1  UNL1        0.0437
     22 C          62.9596   84.5586   10.4498 C.ar    1  UNL1       -0.0184
     23 C          63.9108   83.4872   10.0054 C.ar    1  UNL1       -0.0018
     24 C          64.3185   82.4036   10.9591 C.ar    1  UNL1        0.0316
     25 C          63.7749   82.3913   12.3571 C.ar    1  UNL1        0.1674
     26 F          64.1826   81.3077   13.3108 F       1  UNL1       -0.2018
     27 C          62.8237   83.4627   12.8014 C.ar    1  UNL1        0.1671
     28 F          62.2802   83.4504   14.1994 F       1  UNL1       -0.2018
     29 C          62.4161   84.5463   11.8477 C.ar    1  UNL1        0.0277
     30 N          63.4841   91.9811    3.0796 N.pl3   1  UNL1        0.0675
     31 O          63.7334   90.5419    3.4213 O.2     1  UNL1        0.0362
     32 O          64.6153   92.9656    3.1081 O.co2   1  UNL1       -0.5803
     33 C          63.4460   95.2900    0.7343 C.3     1  UNL1        0.2523
     34 O          63.0882   93.8334    0.7532 O.2     1  UNL1       -0.4684
@<TRIPOS>UNITY_ATOM_ATTR
30 1
charge 1
32 1
charge -1
@<TRIPOS>BOND
     1    33    34    1
     2    34     1    1
     3     1     2    2
     4     2     3    1
     5     3     4    2
     6     4     5    1
     7     5     6   ar
     8     6     7   ar
     9     7     8   ar
    10     8     9   ar
    11     9    14    1
    12    14    15    1
    13    15    16    1
    14    16    17    1
    15    17    20    1
    16    20    21    1
    17    21    22    1
    18    22    23   ar
    19    23    24   ar
    20    24    25   ar
    21    25    26    1
    22    25    27   ar
    23    27    28    1
    24    27    29   ar
    25    17    18    1
    26    18    19    1
    27     9    10   ar
    28    10    11    1
    29    11    12    2
    30    12    13    1
    31    13    30    1
    32    30    31    2
    33    30    32    1
    34    13     1    1
    35    12     4    1
    36    10     5   ar
    37    19    14    1
    38    29    22   ar
@<TRIPOS>MOLECULE
*****
 34 38 0 0 0
SMALL
GASTEIGER

@<TRIPOS>ATOM
      1 C          44.5519   71.4052   15.6025 C.2     1  UNL1        0.1983
      2 C          44.2156   70.3249   16.5873 C.2     1  UNL1        0.0399
      3 C          44.0679   70.6563   18.0428 C.2     1  UNL1        0.0060
      4 C          44.2566   72.0680   18.5135 C.2     1  UNL1        0.0400
      5 C          44.1751   72.6912   19.8754 C.ar    1  UNL1        0.1047
      6 N          43.8775   72.1137   21.2274 N.ar    1  UNL1       -0.2223
      7 C          43.8659   73.0016   22.4362 C.ar    1  UNL1        0.2001
      8 N          44.1518   74.4671   22.2931 N.ar    1  UNL1       -0.2074
      9 C          44.4495   75.0447   20.9412 C.ar    1  UNL1        0.1528
     10 C          44.4611   74.1567   19.7324 C.ar    1  UNL1        0.1303
     11 N          44.7193   74.4392   18.2820 N.2     1  UNL1       -0.2380
     12 C          44.5929   73.1482   17.5287 C.2     1  UNL1        0.1442
     13 C          44.7405   72.8168   16.0732 C.3     1  UNL1        0.4053
     14 N          44.7354   76.5102   20.7981 N.pl3   1  UNL1       -0.2891
     15 C          46.1228   76.9748   20.4676 C.3     1  UNL1        0.1095
     16 C          46.4088   78.4404   20.3245 C.3     1  UNL1        0.0939
     17 N          45.3074   79.4412   20.5120 N.3     1  UNL1       -0.2695
     18 C          43.9201   78.9766   20.8425 C.3     1  UNL1        0.0939
     19 C          43.6341   77.5111   20.9856 C.3     1  UNL1        0.1095
     20 C          45.5934   80.9068   20.3689 C.3     1  UNL1        0.0769
     21 C          46.1933   81.4334   19.0990 C.3     1  UNL1        0.0437
     22 C          45.5533   81.1174   17.7797 C.ar    1  UNL1       -0.0184
     23 C          45.3411   79.6895   17.3719 C.ar    1  UNL1       -0.0018
     24 C          44.7011   79.3735   16.0526 C.ar    1  UNL1        0.0316
     25 C          44.2732   80.4854   15.1411 C.ar    1  UNL1        0.1674
     26 F          43.6331   80.1694   13.8219 F       1  UNL1       -0.2018
     27 C          44.4854   81.9132   15.5490 C.ar    1  UNL1        0.1671
     28 F          44.0575   83.0250   14.6375 F       1  UNL1       -0.2018
     29 C          45.1254   82.2292   16.8683 C.ar    1  UNL1        0.0277
     30 N          45.0769   73.8971   15.0884 N.pl3   1  UNL1        0.0675
     31 O          46.4883   74.0609   14.6076 O.2     1  UNL1        0.0362
     32 O          44.0018   74.8136   14.5843 O.co2   1  UNL1       -0.5803
     33 C          45.4218   69.8265   13.7314 C.3     1  UNL1        0.2523
     34 O          44.6996   71.0737   14.1470 O.2     1  UNL1       -0.4684
@<TRIPOS>UNITY_ATOM_ATTR
30 1
charge 1
32 1
charge -1
@<TRIPOS>BOND
     1    33    34    1
     2    34     1    1
     3     1     2    2
     4     2     3    1
     5     3     4    2
     6     4     5    1
     7     5     6   ar
     8     6     7   ar
     9     7     8   ar
    10     8     9   ar
    11     9    14    1
    12    14    15    1
    13    15    16    1
    14    16    17    1
    15    17    20    1
    16    20    21    1
    17    21    22    1
    18    22    23   ar
    19    23    24   ar
    20    24    25   ar
    21    25    26    1
    22    25    27   ar
    23    27    28    1
    24    27    29   ar
    25    17    18    1
    26    18    19    1
    27     9    10   ar
    28    10    11    1
    29    11    12    2
    30    12    13    1
    31    13    30    1
    32    30    31    2
    33    30    32    1
    34    13     1    1
    35    12     4    1
    36    10     5   ar
    37    19    14    1
    38    29    22   ar
@<TRIPOS>MOLECULE
*****
 34 38 0 0 0
SMALL
GASTEIGER

@<TRIPOS>ATOM
      1 C          66.6774   93.8968   13.7391 C.2     1  UNL1        0.1983
      2 C          66.1697   94.4776   12.4526 C.2     1  UNL1        0.0399
      3 C          65.2641   93.6699   11.5708 C.2     1  UNL1        0.0060
      4 C          64.8662   92.2814   11.9755 C.2     1  UNL1        0.0400
      5 C          63.9936   91.2550   11.3160 C.ar    1  UNL1        0.1047
      6 N          63.2237   91.2698   10.0288 N.ar    1  UNL1       -0.2223
      7 C          62.4222   90.0695    9.6204 C.ar    1  UNL1        0.2001
      8 N          62.3905   88.8544   10.4993 N.ar    1  UNL1       -0.2074
      9 C          63.1604   88.8395   11.7865 C.ar    1  UNL1        0.1528
     10 C          63.9619   90.0398   12.1949 C.ar    1  UNL1        0.1303
     11 N          64.8150   90.3153   13.3975 N.2     1  UNL1       -0.2380
     12 C          65.3739   91.7007   13.2620 C.2     1  UNL1        0.1442
     13 C          66.2795   92.5084   14.1438 C.3     1  UNL1        0.4053
     14 N          63.1287   87.6244   12.6654 N.pl3   1  UNL1       -0.2891
     15 C          63.8515   87.6304   13.9797 C.3     1  UNL1        0.1095
     16 C          63.8198   86.4152   14.8586 C.3     1  UNL1        0.0939
     17 N          63.0654   85.1941   14.4231 N.3     1  UNL1       -0.2695
     18 C          62.3427   85.1881   13.1088 C.3     1  UNL1        0.0939
     19 C          62.3743   86.4033   12.2299 C.3     1  UNL1        0.1095
     20 C          63.0338   83.9790   15.3020 C.3     1  UNL1        0.0769
     21 C          63.8401   82.7680   14.9369 C.3     1  UNL1        0.0437
     22 C          63.6053   82.0779   13.6259 C.ar    1  UNL1       -0.0184
     23 C          62.7892   80.8203   13.5759 C.ar    1  UNL1       -0.0018
     24 C          62.5544   80.1302   12.2650 C.ar    1  UNL1        0.0316
     25 C          63.1356   80.6978   11.0039 C.ar    1  UNL1        0.1674
     26 F          62.9008   80.0077    9.6930 F       1  UNL1       -0.2018
     27 C          63.9516   81.9554   11.0539 C.ar    1  UNL1        0.1671
     28 F          64.5328   82.5229    9.7930 F       1  UNL1       -0.2018
     29 C          64.1865   82.6455   12.3649 C.ar    1  UNL1        0.0277
     30 N          66.7872   91.9277   15.4302 N.pl3   1  UNL1        0.0675
     31 O          67.8530   90.8723   15.4077 O.2     1  UNL1        0.0362
     32 O          66.2291   92.4022   16.7391 O.co2   1  UNL1       -0.5803
     33 C          68.6860   94.0303   15.3816 C.3     1  UNL1        0.2523
     34 O          67.5830   94.7046   14.6208 O.2     1  UNL1       -0.4684
@<TRIPOS>UNITY_ATOM_ATTR
30 1
charge 1
32 1
charge -1
@<TRIPOS>BOND
     1    33    34    1
     2    34     1    1
     3     1     2    2
     4     2     3    1
     5     3     4    2
     6     4     5    1
     7     5     6   ar
     8     6     7   ar
     9     7     8   ar
    10     8     9   ar
    11     9    14    1
    12    14    15    1
    13    15    16    1
    14    16    17    1
    15    17    20    1
    16    20    21    1
    17    21    22    1
    18    22    23   ar
    19    23    24   ar
    20    24    25   ar
    21    25    26    1
    22    25    27   ar
    23    27    28    1
    24    27    29   ar
    25    17    18    1
    26    18    19    1
    27     9    10   ar
    28    10    11    1
    29    11    12    2
    30    12    13    1
    31    13    30    1
    32    30    31    2
    33    30    32    1
    34    13     1    1
    35    12     4    1
    36    10     5   ar
    37    19    14    1
    38    29    22   ar
