@<TRIPOS>MOLECULE
*****
 29 30 0 0 0
SMALL
GASTEIGER

@<TRIPOS>ATOM
      1 N          60.7690   88.2070    9.1801 N.3     1  UNL1       -0.2698
      2 C          59.2858   86.7055    7.6651 C.3     1  UNL1        0.0188
      3 C          59.7073   88.0680    8.1297 C.3     1  UNL1        0.0722
      4 C          60.9732   89.5229    9.8706 C.3     1  UNL1        0.0938
      5 C          60.8918   89.6059   11.3661 C.3     1  UNL1        0.1100
      6 N          61.7116   90.6205   12.1067 N.am    1  UNL1       -0.2692
      7 C          62.8967   90.1818   12.9148 C.2     1  UNL1        0.4020
      8 O          63.2620   88.7286   12.9823 O.2     1  UNL1       -0.2264
      9 H          61.4718   91.5744   12.0624 H       1  UNL1        0.1528
     10 O          63.7165   91.1964   13.6554 O.3     1  UNL1       -0.4291
     11 C          65.1681   91.3753   13.3226 C.3     1  UNL1        0.2447
     12 C          65.6018   92.5116   12.4448 C.ar    1  UNL1        0.0714
     13 C          66.3379   93.7398   12.8917 C.ar    1  UNL1        0.1053
     14 N          66.5666   94.6065   11.6890 N.ar    1  UNL1       -0.2350
     15 C          65.9718   93.9140   10.4987 C.ar    1  UNL1        0.1343
     16 S          65.3755   92.6193   10.9658 S.2     1  UNL1       -0.0652
     17 C          61.6265   87.0301    9.5402 C.3     1  UNL1        0.0938
     18 C          61.2240   86.1258   10.6672 C.3     1  UNL1        0.1100
     19 N          62.0670   86.0501   11.9057 N.am    1  UNL1       -0.2692
     20 C          63.1201   84.9895   12.0325 C.2     1  UNL1        0.4021
     21 O          63.3301   84.0046   10.9209 O.2     1  UNL1       -0.2264
     22 H          61.9291   86.6966   12.6353 H       1  UNL1        0.1528
     23 O          63.9630   84.9138   13.2709 O.3     1  UNL1       -0.4274
     24 C          64.3512   83.5786   13.8335 C.3     1  UNL1        0.2621
     25 C          63.3927   82.4270   13.7612 C.ar    1  UNL1        0.1323
     26 N          63.5830   81.1700   12.9651 N.ar    1  UNL1       -0.2374
     27 C          62.3835   80.2965   13.1842 C.ar    1  UNL1        0.1062
     28 C          61.4518   81.0135   14.1157 C.ar    1  UNL1        0.0573
     29 S          62.0755   82.3302   14.4723 S.2     1  UNL1       -0.0666
@<TRIPOS>BOND
     1     2     3    1
     2     3     1    1
     3     1     4    1
     4     4     5    1
     5     5     6    1
     6     6     7   am
     7     7     8    2
     8     7    10    1
     9    10    11    1
    10    11    12    1
    11    12    13   ar
    12    13    14   ar
    13    14    15   ar
    14    15    16   ar
    15     1    17    1
    16    17    18    1
    17    18    19    1
    18    19    20   am
    19    20    21    2
    20    20    23    1
    21    23    24    1
    22    24    25    1
    23    25    26   ar
    24    26    27   ar
    25    27    28   ar
    26    28    29   ar
    27    16    12   ar
    28    29    25   ar
    29     6     9    1
    30    19    22    1
@<TRIPOS>MOLECULE
*****
 29 30 0 0 0
SMALL
GASTEIGER

@<TRIPOS>ATOM
      1 N          62.7379   82.9096   14.2604 N.3     1  UNL1       -0.2698
      2 C          62.0835   80.5237   13.4672 C.3     1  UNL1        0.0188
      3 C          61.7329   81.7995   14.1740 C.3     1  UNL1        0.0722
      4 C          63.9594   82.8848   13.3901 C.3     1  UNL1        0.0938
      5 C          63.9685   83.6310   12.0889 C.3     1  UNL1        0.1100
      6 N          62.7363   84.3524   11.6293 N.am    1  UNL1       -0.2692
      7 C          62.4817   85.7614   12.0760 C.2     1  UNL1        0.4020
      8 O          63.4592   86.4492   12.9823 O.2     1  UNL1       -0.2264
      9 H          62.0947   83.9010   11.0345 H       1  UNL1        0.1528
     10 O          61.2494   86.4829   11.6165 O.3     1  UNL1       -0.4291
     11 C          61.3647   87.6224   10.6479 C.3     1  UNL1        0.2447
     12 C          60.5444   87.6253    9.3921 C.ar    1  UNL1        0.0714
     13 C          60.0955   86.4141    8.6295 C.ar    1  UNL1        0.1053
     14 N          59.3027   86.8801    7.4445 N.ar    1  UNL1       -0.2350
     15 C          59.2615   88.3792    7.4748 C.ar    1  UNL1        0.1343
     16 S          60.0289   88.8398    8.6785 S.2     1  UNL1       -0.0652
     17 C          62.5216   84.0445   15.2170 C.3     1  UNL1        0.0938
     18 C          63.6875   84.6426   15.9471 C.3     1  UNL1        0.1100
     19 N          63.8024   86.1319   16.0844 N.am    1  UNL1       -0.2692
     20 C          62.9392   86.8631   17.0693 C.2     1  UNL1        0.4021
     21 O          61.9610   86.1050   17.9169 O.2     1  UNL1       -0.2264
     22 H          64.4444   86.6294   15.5280 H       1  UNL1        0.1528
     23 O          63.0541   88.3524   17.2066 O.3     1  UNL1       -0.4274
     24 C          62.7488   89.2392   16.0359 C.3     1  UNL1        0.2621
     25 C          63.7833   90.2032   15.5355 C.ar    1  UNL1        0.1323
     26 N          64.0910   91.5492   16.1218 N.ar    1  UNL1       -0.2374
     27 C          65.1896   92.1684   15.3096 C.ar    1  UNL1        0.1062
     28 C          65.5608   91.2052   14.2214 C.ar    1  UNL1        0.0573
     29 S          64.6917   89.9907   14.3610 S.2     1  UNL1       -0.0666
@<TRIPOS>BOND
     1     2     3    1
     2     3     1    1
     3     1     4    1
     4     4     5    1
     5     5     6    1
     6     6     7   am
     7     7     8    2
     8     7    10    1
     9    10    11    1
    10    11    12    1
    11    12    13   ar
    12    13    14   ar
    13    14    15   ar
    14    15    16   ar
    15     1    17    1
    16    17    18    1
    17    18    19    1
    18    19    20   am
    19    20    21    2
    20    20    23    1
    21    23    24    1
    22    24    25    1
    23    25    26   ar
    24    26    27   ar
    25    27    28   ar
    26    28    29   ar
    27    16    12   ar
    28    29    25   ar
    29     6     9    1
    30    19    22    1
@<TRIPOS>MOLECULE
*****
 29 30 0 0 0
SMALL
GASTEIGER

@<TRIPOS>ATOM
      1 N          60.6405   88.2790    9.2464 N.3     1  UNL1       -0.2698
      2 C          59.2678   86.7039    7.7022 C.3     1  UNL1        0.0188
      3 C          59.6934   88.0864    8.0993 C.3     1  UNL1        0.0722
      4 C          61.6032   87.1894    9.6153 C.3     1  UNL1        0.0938
      5 C          61.2040   86.1414   10.6115 C.3     1  UNL1        0.1100
      6 N          61.9575   86.0071   11.9015 N.am    1  UNL1       -0.2692
      7 C          63.0538   84.9912   12.0273 C.2     1  UNL1        0.4020
      8 O          63.3967   84.1095   10.8632 O.2     1  UNL1       -0.2264
      9 H          61.7325   86.5857   12.6656 H       1  UNL1        0.1528
     10 O          63.8075   84.8568   13.3173 O.3     1  UNL1       -0.4291
     11 C          64.2346   83.5020   13.7989 C.3     1  UNL1        0.2447
     12 C          63.2877   82.3419   13.7110 C.ar    1  UNL1        0.0714
     13 C          63.5010   81.0881   12.9157 C.ar    1  UNL1        0.1053
     14 N          62.3065   80.2033   13.1162 N.ar    1  UNL1       -0.2350
     15 C          61.3549   80.9102   14.0353 C.ar    1  UNL1        0.1343
     16 S          61.9614   82.2320   14.4029 S.2     1  UNL1       -0.0652
     17 C          60.6251   89.5612   10.0246 C.3     1  UNL1        0.0938
     18 C          61.9122   90.1601   10.5091 C.3     1  UNL1        0.1100
     19 N          62.0439   90.6008   11.9368 N.am    1  UNL1       -0.2692
     20 C          62.7264   89.7140   12.9356 C.2     1  UNL1        0.4021
     21 O          63.2772   88.3864   12.5066 O.2     1  UNL1       -0.2264
     22 H          61.6823   91.4722   12.2183 H       1  UNL1        0.1528
     23 O          62.8580   90.1547   14.3633 O.3     1  UNL1       -0.4274
     24 C          64.2161   90.4071   14.9481 C.3     1  UNL1        0.2621
     25 C          65.1317   91.4108   14.3123 C.ar    1  UNL1        0.1323
     26 N          64.8412   92.2111   13.0773 N.ar    1  UNL1       -0.2374
     27 C          66.0284   93.0854   12.8016 C.ar    1  UNL1        0.1062
     28 C          67.0526   92.8255   13.8662 C.ar    1  UNL1        0.0573
     29 S          66.4984   91.7906   14.7999 S.2     1  UNL1       -0.0666
@<TRIPOS>BOND
     1     2     3    1
     2     3     1    1
     3     1     4    1
     4     4     5    1
     5     5     6    1
     6     6     7   am
     7     7     8    2
     8     7    10    1
     9    10    11    1
    10    11    12    1
    11    12    13   ar
    12    13    14   ar
    13    14    15   ar
    14    15    16   ar
    15     1    17    1
    16    17    18    1
    17    18    19    1
    18    19    20   am
    19    20    21    2
    20    20    23    1
    21    23    24    1
    22    24    25    1
    23    25    26   ar
    24    26    27   ar
    25    27    28   ar
    26    28    29   ar
    27    16    12   ar
    28    29    25   ar
    29     6     9    1
    30    19    22    1
@<TRIPOS>MOLECULE
*****
 29 30 0 0 0
SMALL
GASTEIGER

@<TRIPOS>ATOM
      1 N          60.5183   88.5992    9.2910 N.3     1  UNL1       -0.2698
      2 C          58.9182   87.1095    7.8874 C.3     1  UNL1        0.0188
      3 C          59.6734   88.3927    8.0689 C.3     1  UNL1        0.0722
      4 C          60.2259   89.7392   10.2210 C.3     1  UNL1        0.0938
      5 C          60.8065   89.7468   11.6041 C.3     1  UNL1        0.1100
      6 N          61.9457   90.6651   11.9343 N.am    1  UNL1       -0.2692
      7 C          63.2122   90.1099   12.5153 C.2     1  UNL1        0.4020
      8 O          63.3396   88.6365   12.7660 O.2     1  UNL1       -0.2264
      9 H          61.8621   91.6321   11.7697 H       1  UNL1        0.1528
     10 O          64.3515   91.0281   12.8455 O.3     1  UNL1       -0.4291
     11 C          64.9114   91.0584   14.2367 C.3     1  UNL1        0.2447
     12 C          66.1724   91.8193   14.5213 C.ar    1  UNL1        0.0714
     13 C          67.3677   91.9135   13.6200 C.ar    1  UNL1        0.1053
     14 N          68.3934   92.7720   14.2989 N.ar    1  UNL1       -0.2350
     15 C          67.8321   93.2083   15.6197 C.ar    1  UNL1        0.1343
     16 S          66.4594   92.6195   15.7572 S.2     1  UNL1       -0.0652
     17 C          61.6554   87.6657    9.5832 C.3     1  UNL1        0.0938
     18 C          61.4054   86.3905   10.3325 C.3     1  UNL1        0.1100
     19 N          61.6884   86.3172   11.8037 N.am    1  UNL1       -0.2692
     20 C          62.6078   85.2596   12.3388 C.2     1  UNL1        0.4021
     21 O          63.2441   84.2754   11.4027 O.2     1  UNL1       -0.2264
     22 H          61.2708   86.9632   12.4181 H       1  UNL1        0.1528
     23 O          62.8908   85.1863   13.8101 O.3     1  UNL1       -0.4274
     24 C          62.2705   84.1016   14.6399 C.3     1  UNL1        0.2621
     25 C          62.4436   82.6645   14.2465 C.ar    1  UNL1        0.1323
     26 N          61.3590   81.6301   14.1861 N.ar    1  UNL1       -0.2374
     27 C          61.9769   80.3358   13.7467 C.ar    1  UNL1        0.1062
     28 C          63.4433   80.5703   13.5355 C.ar    1  UNL1        0.0573
     29 S          63.7317   82.0095   13.8444 S.2     1  UNL1       -0.0666
@<TRIPOS>BOND
     1     2     3    1
     2     3     1    1
     3     1     4    1
     4     4     5    1
     5     5     6    1
     6     6     7   am
     7     7     8    2
     8     7    10    1
     9    10    11    1
    10    11    12    1
    11    12    13   ar
    12    13    14   ar
    13    14    15   ar
    14    15    16   ar
    15     1    17    1
    16    17    18    1
    17    18    19    1
    18    19    20   am
    19    20    21    2
    20    20    23    1
    21    23    24    1
    22    24    25    1
    23    25    26   ar
    24    26    27   ar
    25    27    28   ar
    26    28    29   ar
    27    16    12   ar
    28    29    25   ar
    29     6     9    1
    30    19    22    1
@<TRIPOS>MOLECULE
*****
 29 30 0 0 0
SMALL
GASTEIGER

@<TRIPOS>ATOM
      1 N          60.5688   88.4320    9.1227 N.3     1  UNL1       -0.2698
      2 C          59.1050   86.8542    7.6676 C.3     1  UNL1        0.0188
      3 C          59.5438   88.2380    8.0450 C.3     1  UNL1        0.0722
      4 C          61.5659   87.3495    9.4131 C.3     1  UNL1        0.0938
      5 C          61.2141   86.2398   10.3591 C.3     1  UNL1        0.1100
      6 N          61.9945   86.0598   11.6274 N.am    1  UNL1       -0.2692
      7 C          63.0177   84.9678   11.7297 C.2     1  UNL1        0.4020
      8 O          63.2606   84.0558   10.5638 O.2     1  UNL1       -0.2264
      9 H          61.8352   86.6584   12.3926 H       1  UNL1        0.1528
     10 O          63.7982   84.7878   12.9980 O.3     1  UNL1       -0.4291
     11 C          64.2456   83.4183   13.4154 C.3     1  UNL1        0.2447
     12 C          63.2384   82.3200   13.5869 C.ar    1  UNL1        0.0714
     13 C          61.9967   82.3857   14.4258 C.ar    1  UNL1        0.1053
     14 N          61.2870   81.0695   14.3070 N.ar    1  UNL1       -0.2350
     15 C          62.0900   80.1905   13.3946 C.ar    1  UNL1        0.1343
     16 S          63.2961   80.9634   12.9495 S.2     1  UNL1       -0.0652
     17 C          60.5970   89.7083    9.9102 C.3     1  UNL1        0.0938
     18 C          61.8935   90.2181   10.4663 C.3     1  UNL1        0.1100
     19 N          61.9855   90.6168   11.9094 N.am    1  UNL1       -0.2692
     20 C          62.6761   89.7191   12.8929 C.2     1  UNL1        0.4021
     21 O          63.2746   88.4228   12.4333 O.2     1  UNL1       -0.2264
     22 H          61.5926   91.4676   12.2110 H       1  UNL1        0.1528
     23 O          62.7681   90.1178   14.3360 O.3     1  UNL1       -0.4274
     24 C          63.8150   89.5047   15.2182 C.3     1  UNL1        0.2621
     25 C          63.5389   88.2080   15.9199 C.ar    1  UNL1        0.1323
     26 N          63.8772   86.8392   15.4081 N.ar    1  UNL1       -0.2374
     27 C          63.4233   85.8377   16.4284 C.ar    1  UNL1        0.1062
     28 C          62.8046   86.5875   17.5707 C.ar    1  UNL1        0.0573
     29 S          62.8760   88.0524   17.2564 S.2     1  UNL1       -0.0666
@<TRIPOS>BOND
     1     2     3    1
     2     3     1    1
     3     1     4    1
     4     4     5    1
     5     5     6    1
     6     6     7   am
     7     7     8    2
     8     7    10    1
     9    10    11    1
    10    11    12    1
    11    12    13   ar
    12    13    14   ar
    13    14    15   ar
    14    15    16   ar
    15     1    17    1
    16    17    18    1
    17    18    19    1
    18    19    20   am
    19    20    21    2
    20    20    23    1
    21    23    24    1
    22    24    25    1
    23    25    26   ar
    24    26    27   ar
    25    27    28   ar
    26    28    29   ar
    27    16    12   ar
    28    29    25   ar
    29     6     9    1
    30    19    22    1
@<TRIPOS>MOLECULE
*****
 29 30 0 0 0
SMALL
GASTEIGER

@<TRIPOS>ATOM
      1 N          61.2998   89.4077   10.5713 N.3     1  UNL1       -0.2698
      2 C          59.1770   90.1834   11.8525 C.3     1  UNL1        0.0188
      3 C          60.2839   90.4670   10.8807 C.3     1  UNL1        0.0722
      4 C          61.0403   88.4167    9.4756 C.3     1  UNL1        0.0938
      5 C          60.5741   87.0313    9.8122 C.3     1  UNL1        0.1100
      6 N          61.5209   85.8733    9.6997 N.am    1  UNL1       -0.2692
      7 C          62.1791   85.3206   10.9290 C.2     1  UNL1        0.4020
      8 O          61.8905   85.9258   12.2708 O.2     1  UNL1       -0.2264
      9 H          61.7104   85.4761    8.8190 H       1  UNL1        0.1528
     10 O          63.1260   84.1626   10.8165 O.3     1  UNL1       -0.4291
     11 C          63.7648   83.5937   12.0487 C.3     1  UNL1        0.2447
     12 C          63.0789   82.4999   12.8123 C.ar    1  UNL1        0.0714
     13 C          62.3987   82.6452   14.1413 C.ar    1  UNL1        0.1053
     14 N          61.8523   81.3038   14.5313 N.ar    1  UNL1       -0.2350
     15 C          62.1948   80.3295   13.4434 C.ar    1  UNL1        0.1343
     16 S          62.9529   81.0688   12.3810 S.2     1  UNL1       -0.0652
     17 C          62.5754   89.3394   11.3576 C.3     1  UNL1        0.0938
     18 C          62.8933   90.4042   12.3652 C.3     1  UNL1        0.1100
     19 N          62.7253   90.1255   13.8294 N.am    1  UNL1       -0.2692
     20 C          63.6793   90.7228   14.8209 C.2     1  UNL1        0.4021
     21 O          64.8013   91.5989   14.3481 O.2     1  UNL1       -0.2264
     22 H          61.9888   89.5505   14.1397 H       1  UNL1        0.1528
     23 O          63.5112   90.4441   16.2852 O.3     1  UNL1       -0.4274
     24 C          62.8593   89.1706   16.7362 C.3     1  UNL1        0.2621
     25 C          63.3591   87.8511   16.2271 C.ar    1  UNL1        0.1323
     26 N          64.1251   87.6291   14.9567 N.ar    1  UNL1       -0.2374
     27 C          64.4200   86.1627   14.8435 C.ar    1  UNL1        0.1062
     28 C          63.8362   85.4785   16.0439 C.ar    1  UNL1        0.0573
     29 S          63.1806   86.5220   16.8990 S.2     1  UNL1       -0.0666
@<TRIPOS>BOND
     1     2     3    1
     2     3     1    1
     3     1     4    1
     4     4     5    1
     5     5     6    1
     6     6     7   am
     7     7     8    2
     8     7    10    1
     9    10    11    1
    10    11    12    1
    11    12    13   ar
    12    13    14   ar
    13    14    15   ar
    14    15    16   ar
    15     1    17    1
    16    17    18    1
    17    18    19    1
    18    19    20   am
    19    20    21    2
    20    20    23    1
    21    23    24    1
    22    24    25    1
    23    25    26   ar
    24    26    27   ar
    25    27    28   ar
    26    28    29   ar
    27    16    12   ar
    28    29    25   ar
    29     6     9    1
    30    19    22    1
@<TRIPOS>MOLECULE
*****
 29 30 0 0 0
SMALL
GASTEIGER

@<TRIPOS>ATOM
      1 N          63.8175   86.8968   15.6349 N.3     1  UNL1       -0.2698
      2 C          62.6261   86.5087   17.9108 C.3     1  UNL1        0.0188
      3 C          63.0544   87.4329   16.8097 C.3     1  UNL1        0.0722
      4 C          64.1393   85.4340   15.5539 C.3     1  UNL1        0.0938
      5 C          63.2811   84.5217   14.7286 C.3     1  UNL1        0.1100
      6 N          62.4157   85.0863   13.6413 N.am    1  UNL1       -0.2692
      7 C          62.6954   84.7461   12.2075 C.2     1  UNL1        0.4020
      8 O          63.8405   83.8413   11.8609 O.2     1  UNL1       -0.2264
      9 H          61.6641   85.6802   13.8687 H       1  UNL1        0.1528
     10 O          61.8301   85.3107   11.1200 O.3     1  UNL1       -0.4291
     11 C          61.9579   86.7543   10.7332 C.3     1  UNL1        0.2447
     12 C          61.0617   87.3299    9.6770 C.ar    1  UNL1        0.0714
     13 C          60.7389   88.7829    9.4905 C.ar    1  UNL1        0.1053
     14 N          59.8087   88.9045    8.3201 N.ar    1  UNL1       -0.2350
     15 C          59.5567   87.5268    7.7831 C.ar    1  UNL1        0.1343
     16 S          60.3311   86.5536    8.6217 S.2     1  UNL1       -0.0652
     17 C          64.2589   87.8235   14.5411 C.3     1  UNL1        0.0938
     18 C          64.1696   89.3083   14.7344 C.3     1  UNL1        0.1100
     19 N          64.2850   90.2266   13.5539 N.am    1  UNL1       -0.2692
     20 C          64.8240   91.6148   13.7336 C.2     1  UNL1        0.4021
     21 O          65.2476   92.0847   15.0936 O.2     1  UNL1       -0.2264
     22 H          64.0070   89.9181   12.6613 H       1  UNL1        0.1528
     23 O          64.9394   92.5331   12.5531 O.3     1  UNL1       -0.4274
     24 C          66.1612   93.3866   12.3836 C.3     1  UNL1        0.2621
     25 C          66.9346   93.3425   11.0991 C.ar    1  UNL1        0.1323
     26 N          68.0205   92.3659   10.7569 N.ar    1  UNL1       -0.2374
     27 C          68.5149   92.6870    9.3776 C.ar    1  UNL1        0.1062
     28 C          67.7344   93.8619    8.8673 C.ar    1  UNL1        0.0573
     29 S          66.7578   94.2670    9.9313 S.2     1  UNL1       -0.0666
@<TRIPOS>BOND
     1     2     3    1
     2     3     1    1
     3     1     4    1
     4     4     5    1
     5     5     6    1
     6     6     7   am
     7     7     8    2
     8     7    10    1
     9    10    11    1
    10    11    12    1
    11    12    13   ar
    12    13    14   ar
    13    14    15   ar
    14    15    16   ar
    15     1    17    1
    16    17    18    1
    17    18    19    1
    18    19    20   am
    19    20    21    2
    20    20    23    1
    21    23    24    1
    22    24    25    1
    23    25    26   ar
    24    26    27   ar
    25    27    28   ar
    26    28    29   ar
    27    16    12   ar
    28    29    25   ar
    29     6     9    1
    30    19    22    1
@<TRIPOS>MOLECULE
*****
 29 30 0 0 0
SMALL
GASTEIGER

@<TRIPOS>ATOM
      1 N          63.5642   85.2507   15.5788 N.3     1  UNL1       -0.2698
      2 C          62.7048   86.4832   17.6983 C.3     1  UNL1        0.0188
      3 C          62.5503   85.3980   16.6744 C.3     1  UNL1        0.0722
      4 C          64.5074   86.3765   15.2736 C.3     1  UNL1        0.0938
      5 C          64.1032   87.4537   14.3112 C.3     1  UNL1        0.1100
      6 N          64.5788   88.8612   14.5179 N.am    1  UNL1       -0.2692
      7 C          63.7103   90.0138   14.1092 C.2     1  UNL1        0.4020
      8 O          62.3663   89.7591   13.4939 O.2     1  UNL1       -0.2264
      9 H          65.4609   89.0284   14.9218 H       1  UNL1        0.1528
     10 O          64.1858   91.4214   14.3159 O.3     1  UNL1       -0.4291
     11 C          65.3195   91.9585   13.4935 C.3     1  UNL1        0.2447
     12 C          66.6280   92.2916   14.1468 C.ar    1  UNL1        0.0714
     13 C          67.9900   92.0470   13.5679 C.ar    1  UNL1        0.1053
     14 N          69.0080   92.5319   14.5571 N.ar    1  UNL1       -0.2350
     15 C          68.2752   93.0762   15.7474 C.ar    1  UNL1        0.1343
     16 S          66.8043   92.9276   15.4938 S.2     1  UNL1       -0.0652
     17 C          63.6351   83.9778   14.7885 C.3     1  UNL1        0.0938
     18 C          62.7081   83.7624   13.6290 C.3     1  UNL1        0.1100
     19 N          62.2821   84.9256   12.7832 N.am    1  UNL1       -0.2692
     20 C          62.7187   85.0110   11.3507 C.2     1  UNL1        0.4021
     21 O          63.5813   83.9332   10.7641 O.2     1  UNL1       -0.2264
     22 H          61.7159   85.6330   13.1682 H       1  UNL1        0.1528
     23 O          62.2927   86.1742   10.5048 O.3     1  UNL1       -0.4274
     24 C          60.8457   86.5644   10.4403 C.3     1  UNL1        0.2621
     25 C          60.4372   87.9796   10.7237 C.ar    1  UNL1        0.1323
     26 N          59.6387   88.4472   11.9042 N.ar    1  UNL1       -0.2374
     27 C          59.4635   89.9323   11.7864 C.ar    1  UNL1        0.1062
     28 C          60.1538   90.3825   10.5331 C.ar    1  UNL1        0.0573
     29 S          60.7556   89.1757    9.8763 S.2     1  UNL1       -0.0666
@<TRIPOS>BOND
     1     2     3    1
     2     3     1    1
     3     1     4    1
     4     4     5    1
     5     5     6    1
     6     6     7   am
     7     7     8    2
     8     7    10    1
     9    10    11    1
    10    11    12    1
    11    12    13   ar
    12    13    14   ar
    13    14    15   ar
    14    15    16   ar
    15     1    17    1
    16    17    18    1
    17    18    19    1
    18    19    20   am
    19    20    21    2
    20    20    23    1
    21    23    24    1
    22    24    25    1
    23    25    26   ar
    24    26    27   ar
    25    27    28   ar
    26    28    29   ar
    27    16    12   ar
    28    29    25   ar
    29     6     9    1
    30    19    22    1
@<TRIPOS>MOLECULE
*****
 29 30 0 0 0
SMALL
GASTEIGER

@<TRIPOS>ATOM
      1 N          63.5859   88.7667   15.6843 N.3     1  UNL1       -0.2698
      2 C          62.8213   87.0032   17.4322 C.3     1  UNL1        0.0188
      3 C          63.0889   88.4313   17.0592 C.3     1  UNL1        0.0722
      4 C          64.5359   87.8412   14.9837 C.3     1  UNL1        0.0938
      5 C          64.0062   86.6989   14.1685 C.3     1  UNL1        0.1100
      6 N          64.3689   85.2887   14.5289 N.am    1  UNL1       -0.2692
      7 C          63.2941   84.3072   14.8912 C.2     1  UNL1        0.4020
      8 O          61.8566   84.7358   14.8932 O.2     1  UNL1       -0.2264
      9 H          65.3124   85.0074   14.5276 H       1  UNL1        0.1528
     10 O          63.6567   82.8969   15.2516 O.3     1  UNL1       -0.4291
     11 C          63.4293   81.7889   14.2665 C.3     1  UNL1        0.2447
     12 C          63.7144   82.0096   12.8104 C.ar    1  UNL1        0.0714
     13 C          64.8916   82.7470   12.2444 C.ar    1  UNL1        0.1053
     14 N          64.7771   82.7247   10.7490 N.ar    1  UNL1       -0.2350
     15 C          63.5291   81.9735   10.3908 C.ar    1  UNL1        0.1343
     16 S          62.8723   81.5315   11.6648 S.2     1  UNL1       -0.0652
     17 C          63.1329   90.0277   15.0099 C.3     1  UNL1        0.0938
     18 C          63.1811   90.1375   13.5147 C.3     1  UNL1        0.1100
     19 N          61.9731   89.7869   12.6976 N.am    1  UNL1       -0.2692
     20 C          61.8565   90.2745   11.2839 C.2     1  UNL1        0.4021
     21 O          62.9480   91.1128   10.6874 O.2     1  UNL1       -0.2264
     22 H          61.2567   89.2366   13.0892 H       1  UNL1        0.1528
     23 O          60.6485   89.9238   10.4668 O.3     1  UNL1       -0.4274
     24 C          60.0558   88.5488   10.5564 C.3     1  UNL1        0.2621
     25 C          60.9481   87.3436   10.5183 C.ar    1  UNL1        0.1323
     26 N          61.3451   86.5030   11.6955 N.ar    1  UNL1       -0.2374
     27 C          62.2424   85.4074   11.2011 C.ar    1  UNL1        0.1062
     28 C          62.3999   85.5708    9.7184 C.ar    1  UNL1        0.0573
     29 S          61.6000   86.7675    9.2964 S.2     1  UNL1       -0.0666
@<TRIPOS>BOND
     1     2     3    1
     2     3     1    1
     3     1     4    1
     4     4     5    1
     5     5     6    1
     6     6     7   am
     7     7     8    2
     8     7    10    1
     9    10    11    1
    10    11    12    1
    11    12    13   ar
    12    13    14   ar
    13    14    15   ar
    14    15    16   ar
    15     1    17    1
    16    17    18    1
    17    18    19    1
    18    19    20   am
    19    20    21    2
    20    20    23    1
    21    23    24    1
    22    24    25    1
    23    25    26   ar
    24    26    27   ar
    25    27    28   ar
    26    28    29   ar
    27    16    12   ar
    28    29    25   ar
    29     6     9    1
    30    19    22    1
