@<TRIPOS>MOLECULE
*****
 33 37 0 0 0
SMALL
GASTEIGER

@<TRIPOS>ATOM
      1 N          63.9141   89.8142   15.8580 N.3     1  UNL1       -0.2655
      2 C          64.3274   89.4838   14.4544 C.3     1  UNL1        0.1132
      3 C          64.1367   88.0937   13.9240 C.3     1  UNL1        0.1849
      4 N          63.5328   87.0341   14.7971 N.pl3   1  UNL1       -0.1905
      5 C          63.1195   87.3646   16.2007 C.3     1  UNL1        0.1849
      6 C          63.3102   88.7546   16.7311 C.3     1  UNL1        0.1132
      7 C          63.3420   85.6440   14.2667 C.cat   1  UNL1        0.4230
      8 N          63.5188   85.2123   12.8411 N.2     1  UNL1       -0.0678
      9 C          63.2271   83.7431   12.7622 C.2     1  UNL1        0.1894
     10 C          63.2404   82.7774   11.6145 C.2     1  UNL1        0.0495
     11 C          62.8967   81.3353   11.8436 C.2     1  UNL1        0.0640
     12 C          62.5397   80.8590   13.2204 C.2     1  UNL1       -0.0267
     13 C          62.1961   79.4170   13.4495 C.3     1  UNL1        0.0275
     14 C          62.5264   81.8247   14.3682 C.3     1  UNL1        0.0899
     15 C          62.8701   83.2667   14.1391 C.2     1  UNL1        0.1742
     16 N          62.9411   84.4416   15.0689 N.2     1  UNL1       -0.0716
     17 C          62.9100   80.3696   10.6959 C.1     1  UNL1        0.0999
     18 N          62.9234   79.4039    9.5482 N.1     1  UNL1       -0.1908
     19 C          64.1048   91.2044   16.3884 C.3     1  UNL1        0.0971
     20 C          64.5047   92.3129   15.4603 C.3     1  UNL1        0.1264
     21 C          65.0569   92.2614   10.9946 C.ar    1  UNL1        0.1593
     22 C          66.4377   92.2882   10.4093 C.ar    1  UNL1        0.1357
     23 N          67.6344   92.3321   11.3125 N.ar    1  UNL1       -0.2392
     24 C          67.4504   92.3493   12.8011 C.ar    1  UNL1        0.0975
     25 C          68.6472   92.3932   13.7043 C.ar    1  UNL1        0.0255
     26 C          68.4631   92.4103   15.1928 C.ar    1  UNL1        0.0623
     27 C          67.0823   92.3836   15.7782 C.ar    1  UNL1        0.2611
     28 O          66.8982   92.4007   17.2668 O.2     1  UNL1       -0.2670
     29 N          65.8855   92.3396   14.8750 N.ar    1  UNL1       -0.2926
     30 C          66.0696   92.3225   13.3864 C.ar    1  UNL1        0.0832
     31 C          64.8728   92.2786   12.4831 C.ar    1  UNL1        0.0573
     32 C          62.9169   91.0528   10.1523 C.3     1  UNL1        0.2525
     33 O          63.8601   92.2175   10.0914 O.3     1  UNL1       -0.4698
@<TRIPOS>BOND
     1    32    33    1
     2    33    21    1
     3    21    22   ar
     4    22    23   ar
     5    23    24   ar
     6    24    25   ar
     7    25    26   ar
     8    26    27   ar
     9    27    28    2
    10    27    29   ar
    11    29    20    1
    12    20    19    1
    13    19     1    1
    14     1     2    1
    15     2     3    1
    16     3     4    1
    17     4     7    1
    18     7     8    2
    19     8     9    1
    20     9    10    2
    21    10    11    1
    22    11    17    1
    23    17    18    3
    24    11    12    2
    25    12    13    1
    26    12    14    1
    27    14    15    1
    28    15    16    2
    29     4     5    1
    30     5     6    1
    31    29    30   ar
    32    30    31   ar
    33    31    21   ar
    34    30    24   ar
    35     6     1    1
    36    16     7    1
    37    15     9    1
@<TRIPOS>MOLECULE
*****
 33 37 0 0 0
SMALL
GASTEIGER

@<TRIPOS>ATOM
      1 N          72.1199   75.0752   15.6883 N.3     1  UNL1       -0.2655
      2 C          70.8722   75.5102   14.9783 C.3     1  UNL1        0.1132
      3 C          70.9479   76.5438   13.8940 C.3     1  UNL1        0.1849
      4 N          72.2712   77.1426   13.5197 N.pl3   1  UNL1       -0.1905
      5 C          73.5189   76.7077   14.2297 C.3     1  UNL1        0.1849
      6 C          73.4433   75.6740   15.3140 C.3     1  UNL1        0.1132
      7 C          72.3469   78.1763   12.4354 C.cat   1  UNL1        0.4230
      8 N          72.7033   77.9243   11.0003 N.2     1  UNL1       -0.0678
      9 C          72.6562   79.2358   10.2738 C.2     1  UNL1        0.1894
     10 C          72.9145   79.5997    8.8417 C.2     1  UNL1        0.0495
     11 C          72.7873   81.0263    8.3958 C.2     1  UNL1        0.0640
     12 C          72.4019   82.0888    9.3819 C.2     1  UNL1       -0.0267
     13 C          72.2747   83.5153    8.9359 C.3     1  UNL1        0.0275
     14 C          72.1436   81.7249   10.8139 C.3     1  UNL1        0.0899
     15 C          72.2707   80.2984   11.2599 C.2     1  UNL1        0.1742
     16 N          72.0796   79.6436   12.5958 N.2     1  UNL1       -0.0716
     17 C          73.0456   81.3902    6.9637 C.1     1  UNL1        0.0999
     18 N          73.3039   81.7542    5.5316 N.1     1  UNL1       -0.1908
     19 C          72.0442   74.0415   16.7727 C.3     1  UNL1        0.0971
     20 C          70.9159   73.0531   16.7892 C.3     1  UNL1        0.1264
     21 C          72.3224   71.5196   12.7992 C.ar    1  UNL1        0.1593
     22 C          72.6031   70.0578   12.6141 C.ar    1  UNL1        0.1357
     23 N          72.4150   69.1072   13.7591 N.ar    1  UNL1       -0.2392
     24 C          71.9462   69.6183   15.0891 C.ar    1  UNL1        0.0975
     25 C          71.7582   68.6677   16.2340 C.ar    1  UNL1        0.0255
     26 C          71.2894   69.1788   17.5640 C.ar    1  UNL1        0.0623
     27 C          71.0086   70.6407   17.7491 C.ar    1  UNL1        0.2611
     28 O          70.5398   71.1519   19.0790 O.2     1  UNL1       -0.2670
     29 N          71.1967   71.5913   16.6041 N.ar    1  UNL1       -0.2926
     30 C          71.6655   71.0801   15.2741 C.ar    1  UNL1        0.0832
     31 C          71.8536   72.0308   14.1291 C.ar    1  UNL1        0.0573
     32 C          72.8831   73.8989   11.9190 C.3     1  UNL1        0.2525
     33 O          72.5105   72.4702   11.6542 O.3     1  UNL1       -0.4698
@<TRIPOS>BOND
     1    32    33    1
     2    33    21    1
     3    21    22   ar
     4    22    23   ar
     5    23    24   ar
     6    24    25   ar
     7    25    26   ar
     8    26    27   ar
     9    27    28    2
    10    27    29   ar
    11    29    20    1
    12    20    19    1
    13    19     1    1
    14     1     2    1
    15     2     3    1
    16     3     4    1
    17     4     7    1
    18     7     8    2
    19     8     9    1
    20     9    10    2
    21    10    11    1
    22    11    17    1
    23    17    18    3
    24    11    12    2
    25    12    13    1
    26    12    14    1
    27    14    15    1
    28    15    16    2
    29     4     5    1
    30     5     6    1
    31    29    30   ar
    32    30    31   ar
    33    31    21   ar
    34    30    24   ar
    35     6     1    1
    36    16     7    1
    37    15     9    1
@<TRIPOS>MOLECULE
*****
 33 37 0 0 0
SMALL
GASTEIGER

@<TRIPOS>ATOM
      1 N          72.0520   75.9704   14.4901 N.3     1  UNL1       -0.2655
      2 C          71.9161   75.4477   13.0907 C.3     1  UNL1        0.1132
      3 C          71.9842   76.3922   11.9274 C.3     1  UNL1        0.1849
      4 N          72.1881   77.8593   12.1635 N.pl3   1  UNL1       -0.1905
      5 C          72.3240   78.3820   13.5629 C.3     1  UNL1        0.1849
      6 C          72.2559   77.4376   14.7262 C.3     1  UNL1        0.1132
      7 C          72.2562   78.8039   11.0002 C.cat   1  UNL1        0.4230
      8 N          72.8551   78.5071    9.6573 N.2     1  UNL1       -0.0678
      9 C          72.7063   79.7309    8.8028 C.2     1  UNL1        0.1894
     10 C          73.1107   80.0223    7.3880 C.2     1  UNL1        0.0495
     11 C          72.8241   81.3669    6.7879 C.2     1  UNL1        0.0640
     12 C          72.1333   82.4200    7.6026 C.2     1  UNL1       -0.0267
     13 C          71.8468   83.7645    7.0025 C.3     1  UNL1        0.0275
     14 C          71.7289   82.1285    9.0173 C.3     1  UNL1        0.0899
     15 C          72.0154   80.7840    9.6174 C.2     1  UNL1        0.1742
     16 N          71.7372   80.2111   10.9755 N.2     1  UNL1       -0.0716
     17 C          73.2285   81.6584    5.3732 C.1     1  UNL1        0.0999
     18 N          73.6329   81.9499    3.9584 N.1     1  UNL1       -0.1908
     19 C          71.9839   75.0258   15.6534 C.3     1  UNL1        0.0971
     20 C          70.7655   74.1754   15.8586 C.3     1  UNL1        0.1264
     21 C          71.3368   70.5282   13.2854 C.ar    1  UNL1        0.1593
     22 C          71.4648   69.1752   13.9200 C.ar    1  UNL1        0.1357
     23 N          71.4024   69.0378   15.4124 N.ar    1  UNL1       -0.2392
     24 C          71.2119   70.2535   16.2701 C.ar    1  UNL1        0.0975
     25 C          71.1495   70.1161   17.7625 C.ar    1  UNL1        0.0255
     26 C          70.9590   71.3318   18.6203 C.ar    1  UNL1        0.0623
     27 C          70.8310   72.6850   17.9857 C.ar    1  UNL1        0.2611
     28 O          70.6406   73.9006   18.8434 O.2     1  UNL1       -0.2670
     29 N          70.8935   72.8223   16.4933 N.ar    1  UNL1       -0.2926
     30 C          71.0839   71.6065   15.6355 C.ar    1  UNL1        0.0832
     31 C          71.1464   71.7439   14.1431 C.ar    1  UNL1        0.0573
     32 C          70.1326   70.7467   10.9936 C.3     1  UNL1        0.2525
     33 O          71.3993   70.6656   11.7930 O.3     1  UNL1       -0.4698
@<TRIPOS>BOND
     1    32    33    1
     2    33    21    1
     3    21    22   ar
     4    22    23   ar
     5    23    24   ar
     6    24    25   ar
     7    25    26   ar
     8    26    27   ar
     9    27    28    2
    10    27    29   ar
    11    29    20    1
    12    20    19    1
    13    19     1    1
    14     1     2    1
    15     2     3    1
    16     3     4    1
    17     4     7    1
    18     7     8    2
    19     8     9    1
    20     9    10    2
    21    10    11    1
    22    11    17    1
    23    17    18    3
    24    11    12    2
    25    12    13    1
    26    12    14    1
    27    14    15    1
    28    15    16    2
    29     4     5    1
    30     5     6    1
    31    29    30   ar
    32    30    31   ar
    33    31    21   ar
    34    30    24   ar
    35     6     1    1
    36    16     7    1
    37    15     9    1
@<TRIPOS>MOLECULE
*****
 33 37 0 0 0
SMALL
GASTEIGER

@<TRIPOS>ATOM
      1 N          63.5926   90.2581   12.6181 N.3     1  UNL1       -0.2655
      2 C          62.8749   89.5990   11.4777 C.3     1  UNL1        0.1132
      3 C          62.7052   88.1088   11.4593 C.3     1  UNL1        0.1849
      4 N          63.2531   87.2777   12.5813 N.pl3   1  UNL1       -0.1905
      5 C          63.9707   87.9367   13.7217 C.3     1  UNL1        0.1849
      6 C          64.1405   89.4270   13.7401 C.3     1  UNL1        0.1132
      7 C          63.0834   85.7873   12.5629 C.cat   1  UNL1        0.4230
      8 N          63.2900   84.8910   11.3781 N.2     1  UNL1       -0.0678
      9 C          63.0116   83.4815   11.8091 C.2     1  UNL1        0.1894
     10 C          63.0540   82.1782   11.0676 C.2     1  UNL1        0.0495
     11 C          62.7176   80.9002   11.7774 C.2     1  UNL1        0.0640
     12 C          62.3388   80.9255   13.2285 C.2     1  UNL1       -0.0267
     13 C          62.0025   79.6476   13.9382 C.3     1  UNL1        0.0275
     14 C          62.2964   82.2288   13.9700 C.3     1  UNL1        0.0899
     15 C          62.6328   83.5067   13.2603 C.2     1  UNL1        0.1742
     16 N          62.6772   84.9318   13.7262 N.2     1  UNL1       -0.0716
     17 C          62.7600   79.5970   11.0359 C.1     1  UNL1        0.0999
     18 N          62.8024   78.2938   10.2944 N.1     1  UNL1       -0.1908
     19 C          63.7623   91.7484   12.6365 C.3     1  UNL1        0.0971
     20 C          64.8048   92.3952   11.7735 C.3     1  UNL1        0.1264
     21 C          66.1035   92.4594   16.0815 C.ar    1  UNL1        0.1593
     22 C          67.5561   92.3211   16.4290 C.ar    1  UNL1        0.1357
     23 N          68.5758   92.1615   15.3405 N.ar    1  UNL1       -0.2392
     24 C          68.1429   92.1401   13.9046 C.ar    1  UNL1        0.0975
     25 C          69.1626   91.9805   12.8161 C.ar    1  UNL1        0.0255
     26 C          68.7297   91.9591   11.3801 C.ar    1  UNL1        0.0623
     27 C          67.2771   92.0973   11.0325 C.ar    1  UNL1        0.2611
     28 O          66.8442   92.0759    9.5965 O.2     1  UNL1       -0.2670
     29 N          66.2574   92.2570   12.1210 N.ar    1  UNL1       -0.2926
     30 C          66.6903   92.2783   13.5570 C.ar    1  UNL1        0.0832
     31 C          65.6706   92.4380   14.6455 C.ar    1  UNL1        0.0573
     32 C          63.7558   91.9304   17.0603 C.3     1  UNL1        0.2525
     33 O          65.0838   92.6190   17.1699 O.3     1  UNL1       -0.4698
@<TRIPOS>BOND
     1    32    33    1
     2    33    21    1
     3    21    22   ar
     4    22    23   ar
     5    23    24   ar
     6    24    25   ar
     7    25    26   ar
     8    26    27   ar
     9    27    28    2
    10    27    29   ar
    11    29    20    1
    12    20    19    1
    13    19     1    1
    14     1     2    1
    15     2     3    1
    16     3     4    1
    17     4     7    1
    18     7     8    2
    19     8     9    1
    20     9    10    2
    21    10    11    1
    22    11    17    1
    23    17    18    3
    24    11    12    2
    25    12    13    1
    26    12    14    1
    27    14    15    1
    28    15    16    2
    29     4     5    1
    30     5     6    1
    31    29    30   ar
    32    30    31   ar
    33    31    21   ar
    34    30    24   ar
    35     6     1    1
    36    16     7    1
    37    15     9    1
@<TRIPOS>MOLECULE
*****
 33 37 0 0 0
SMALL
GASTEIGER

@<TRIPOS>ATOM
      1 N          63.6756   90.1201   12.7305 N.3     1  UNL1       -0.2655
      2 C          64.2301   89.2732   13.8374 C.3     1  UNL1        0.1132
      3 C          64.0439   87.7851   13.8084 C.3     1  UNL1        0.1849
      4 N          63.3031   87.1440   12.6726 N.pl3   1  UNL1       -0.1905
      5 C          62.7487   87.9909   11.5656 C.3     1  UNL1        0.1849
      6 C          62.9349   89.4790   11.5946 C.3     1  UNL1        0.1132
      7 C          63.1169   85.6558   12.6436 C.cat   1  UNL1        0.4230
      8 N          63.3236   84.7643   11.4551 N.2     1  UNL1       -0.0678
      9 C          63.0257   83.3555   11.8750 C.2     1  UNL1        0.1894
     10 C          63.0598   82.0564   11.1258 C.2     1  UNL1        0.0495
     11 C          62.7030   80.7780   11.8248 C.2     1  UNL1        0.0640
     12 C          62.3121   80.7987   13.2728 C.2     1  UNL1       -0.0267
     13 C          61.9554   79.5204   13.9717 C.3     1  UNL1        0.0275
     14 C          62.2780   82.0978   14.0219 C.3     1  UNL1        0.0899
     15 C          62.6348   83.3762   13.3230 C.2     1  UNL1        0.1742
     16 N          62.6912   84.7979   13.7980 N.2     1  UNL1       -0.0716
     17 C          62.7371   79.4789   11.0757 C.1     1  UNL1        0.0999
     18 N          62.7712   78.1798   10.3266 N.1     1  UNL1       -0.1908
     19 C          63.8619   91.6083   12.7595 C.3     1  UNL1        0.0971
     20 C          64.1635   92.3012   14.0552 C.3     1  UNL1        0.1264
     21 C          67.6929   91.9590   11.2845 C.ar    1  UNL1        0.1593
     22 C          69.0848   91.9327   11.8428 C.ar    1  UNL1        0.1357
     23 N          69.3004   92.0205   13.3247 N.ar    1  UNL1       -0.2392
     24 C          68.1239   92.1346   14.2482 C.ar    1  UNL1        0.0975
     25 C          68.3395   92.2224   15.7301 C.ar    1  UNL1        0.0255
     26 C          67.1630   92.3364   16.6536 C.ar    1  UNL1        0.0623
     27 C          65.7710   92.3627   16.0953 C.ar    1  UNL1        0.2611
     28 O          64.5946   92.4768   17.0188 O.2     1  UNL1       -0.2670
     29 N          65.5555   92.2749   14.6135 N.ar    1  UNL1       -0.2926
     30 C          66.7320   92.1609   13.6899 C.ar    1  UNL1        0.0832
     31 C          66.5165   92.0731   12.2081 C.ar    1  UNL1        0.0573
     32 C          68.3281   92.6832    8.8717 C.3     1  UNL1        0.2525
     33 O          67.4774   91.8712    9.8027 O.3     1  UNL1       -0.4698
@<TRIPOS>BOND
     1    32    33    1
     2    33    21    1
     3    21    22   ar
     4    22    23   ar
     5    23    24   ar
     6    24    25   ar
     7    25    26   ar
     8    26    27   ar
     9    27    28    2
    10    27    29   ar
    11    29    20    1
    12    20    19    1
    13    19     1    1
    14     1     2    1
    15     2     3    1
    16     3     4    1
    17     4     7    1
    18     7     8    2
    19     8     9    1
    20     9    10    2
    21    10    11    1
    22    11    17    1
    23    17    18    3
    24    11    12    2
    25    12    13    1
    26    12    14    1
    27    14    15    1
    28    15    16    2
    29     4     5    1
    30     5     6    1
    31    29    30   ar
    32    30    31   ar
    33    31    21   ar
    34    30    24   ar
    35     6     1    1
    36    16     7    1
    37    15     9    1
@<TRIPOS>MOLECULE
*****
 33 37 0 0 0
SMALL
GASTEIGER

@<TRIPOS>ATOM
      1 N          63.4488   86.8595   14.4879 N.3     1  UNL1       -0.2655
      2 C          63.1018   87.2322   13.0770 C.3     1  UNL1        0.1132
      3 C          63.5193   88.5645   12.5289 C.3     1  UNL1        0.1849
      4 N          64.2839   89.5242   13.3917 N.pl3   1  UNL1       -0.1905
      5 C          64.6309   89.1515   14.8026 C.3     1  UNL1        0.1849
      6 C          64.2134   87.8192   15.3507 C.3     1  UNL1        0.1132
      7 C          64.7015   90.8566   12.8436 C.cat   1  UNL1        0.4230
      8 N          64.6310   91.2801   11.4063 N.2     1  UNL1       -0.0678
      9 C          65.1488   92.6846   11.3110 C.2     1  UNL1        0.1894
     10 C          65.3152   93.6162   10.1472 C.2     1  UNL1        0.0495
     11 C          65.8721   94.9924   10.3618 C.2     1  UNL1        0.0640
     12 C          66.2627   95.4370   11.7401 C.2     1  UNL1       -0.0267
     13 C          66.8196   96.8131   11.9546 C.3     1  UNL1        0.0275
     14 C          66.0963   94.5054   12.9039 C.3     1  UNL1        0.0899
     15 C          65.5394   93.1292   12.6894 C.2     1  UNL1        0.1742
     16 N          65.2629   91.9995   13.6365 N.2     1  UNL1       -0.0716
     17 C          66.0385   95.9240    9.1980 C.1     1  UNL1        0.0999
     18 N          66.2049   96.8556    8.0341 N.1     1  UNL1       -0.1908
     19 C          63.0312   85.5271   15.0361 C.3     1  UNL1        0.0971
     20 C          62.2905   84.5565   14.1647 C.3     1  UNL1        0.1264
     21 C          61.8087   85.9772    9.9222 C.ar    1  UNL1        0.1593
     22 C          62.5245   85.2713    8.8090 C.ar    1  UNL1        0.1357
     23 N          63.4009   84.0917    9.1100 N.ar    1  UNL1       -0.2392
     24 C          63.5615   83.6181   10.5241 C.ar    1  UNL1        0.0975
     25 C          64.4379   82.4386   10.8251 C.ar    1  UNL1        0.0255
     26 C          64.5985   81.9650   12.2393 C.ar    1  UNL1        0.0623
     27 C          63.8827   82.6710   13.3525 C.ar    1  UNL1        0.2611
     28 O          64.0432   82.1974   14.7667 O.2     1  UNL1       -0.2670
     29 N          63.0063   83.8505   13.0515 N.ar    1  UNL1       -0.2926
     30 C          62.8457   84.3241   11.6373 C.ar    1  UNL1        0.0832
     31 C          61.9693   85.5037   11.3363 C.ar    1  UNL1        0.0573
     32 C          60.2864   87.9165   10.7417 C.3     1  UNL1        0.2525
     33 O          60.9324   87.1568    9.6212 O.3     1  UNL1       -0.4698
@<TRIPOS>BOND
     1    32    33    1
     2    33    21    1
     3    21    22   ar
     4    22    23   ar
     5    23    24   ar
     6    24    25   ar
     7    25    26   ar
     8    26    27   ar
     9    27    28    2
    10    27    29   ar
    11    29    20    1
    12    20    19    1
    13    19     1    1
    14     1     2    1
    15     2     3    1
    16     3     4    1
    17     4     7    1
    18     7     8    2
    19     8     9    1
    20     9    10    2
    21    10    11    1
    22    11    17    1
    23    17    18    3
    24    11    12    2
    25    12    13    1
    26    12    14    1
    27    14    15    1
    28    15    16    2
    29     4     5    1
    30     5     6    1
    31    29    30   ar
    32    30    31   ar
    33    31    21   ar
    34    30    24   ar
    35     6     1    1
    36    16     7    1
    37    15     9    1
@<TRIPOS>MOLECULE
*****
 33 37 0 0 0
SMALL
GASTEIGER

@<TRIPOS>ATOM
      1 N          59.4647   90.2911    6.1554 N.3     1  UNL1       -0.2655
      2 C          58.2982   91.0171    5.5535 C.3     1  UNL1        0.1132
      3 C          58.4975   91.8879    4.3485 C.3     1  UNL1        0.1849
      4 N          59.8632   92.0326    3.7454 N.pl3   1  UNL1       -0.1905
      5 C          61.0297   91.3066    4.3473 C.3     1  UNL1        0.1849
      6 C          60.8304   90.4358    5.5523 C.3     1  UNL1        0.1132
      7 C          60.0626   92.9035    2.5404 C.cat   1  UNL1        0.4230
      8 N          59.0378   93.1963    1.4850 N.2     1  UNL1       -0.0678
      9 C          59.6635   94.1081    0.4716 C.2     1  UNL1        0.1894
     10 C          59.1304   94.7269   -0.7866 C.2     1  UNL1        0.0495
     11 C          60.0089   95.6164   -1.6155 C.2     1  UNL1        0.0640
     12 C          61.4204   95.8871   -1.1864 C.2     1  UNL1       -0.0267
     13 C          62.2988   96.7766   -2.0153 C.3     1  UNL1        0.0275
     14 C          61.9535   95.2683    0.0718 C.3     1  UNL1        0.0899
     15 C          61.0752   94.3788    0.9007 C.2     1  UNL1        0.1742
     16 N          61.3217   93.6343    2.1793 N.2     1  UNL1       -0.0716
     17 C          59.4757   96.2352   -2.8737 C.1     1  UNL1        0.0999
     18 N          58.9426   96.8539   -4.1318 N.1     1  UNL1       -0.1908
     19 C          59.2654   89.4203    7.3604 C.3     1  UNL1        0.0971
     20 C          60.1470   89.5895    8.5621 C.3     1  UNL1        0.1264
     21 C          62.9603   90.1007   12.0369 C.ar    1  UNL1        0.1593
     22 C          63.5213   88.8953   12.7312 C.ar    1  UNL1        0.1357
     23 N          63.1446   87.5195   12.2673 N.ar    1  UNL1       -0.2392
     24 C          62.2069   87.3491   11.1091 C.ar    1  UNL1        0.0975
     25 C          61.8301   85.9732   10.6453 C.ar    1  UNL1        0.0255
     26 C          60.8924   85.8028    9.4870 C.ar    1  UNL1        0.0623
     27 C          60.3313   87.0083    8.7926 C.ar    1  UNL1        0.2611
     28 O          59.3935   86.8379    7.6344 O.2     1  UNL1       -0.2670
     29 N          60.7080   88.3841    9.2565 N.ar    1  UNL1       -0.2926
     30 C          61.6458   88.5545   10.4148 C.ar    1  UNL1        0.0832
     31 C          62.0225   89.9303   10.8786 C.ar    1  UNL1        0.0573
     32 C          64.7452   91.9651   12.3332 C.3     1  UNL1        0.2525
     33 O          63.3370   91.4766   12.5007 O.3     1  UNL1       -0.4698
@<TRIPOS>BOND
     1    32    33    1
     2    33    21    1
     3    21    22   ar
     4    22    23   ar
     5    23    24   ar
     6    24    25   ar
     7    25    26   ar
     8    26    27   ar
     9    27    28    2
    10    27    29   ar
    11    29    20    1
    12    20    19    1
    13    19     1    1
    14     1     2    1
    15     2     3    1
    16     3     4    1
    17     4     7    1
    18     7     8    2
    19     8     9    1
    20     9    10    2
    21    10    11    1
    22    11    17    1
    23    17    18    3
    24    11    12    2
    25    12    13    1
    26    12    14    1
    27    14    15    1
    28    15    16    2
    29     4     5    1
    30     5     6    1
    31    29    30   ar
    32    30    31   ar
    33    31    21   ar
    34    30    24   ar
    35     6     1    1
    36    16     7    1
    37    15     9    1
@<TRIPOS>MOLECULE
*****
 33 37 0 0 0
SMALL
GASTEIGER

@<TRIPOS>ATOM
      1 N          59.5632   90.3237    6.1388 N.3     1  UNL1       -0.2655
      2 C          60.9409   90.4035    5.5509 C.3     1  UNL1        0.1132
      3 C          61.1962   91.2701    4.3535 C.3     1  UNL1        0.1849
      4 N          60.0739   92.0568    3.7440 N.pl3   1  UNL1       -0.1905
      5 C          58.6962   91.9769    4.3320 C.3     1  UNL1        0.1849
      6 C          58.4409   91.1104    5.5294 C.3     1  UNL1        0.1132
      7 C          60.3292   92.9234    2.5466 C.cat   1  UNL1        0.4230
      8 N          61.6690   93.2141    1.9381 N.2     1  UNL1       -0.0678
      9 C          61.4573   94.1218    0.7629 C.2     1  UNL1        0.1894
     10 C          62.4138   94.7372   -0.2152 C.2     1  UNL1        0.0495
     11 C          61.8994   95.6229   -1.3112 C.2     1  UNL1        0.0640
     12 C          60.4287   95.8931   -1.4290 C.2     1  UNL1       -0.0267
     13 C          59.9144   96.7788   -2.5250 C.3     1  UNL1        0.0275
     14 C          59.4723   95.2778   -0.4510 C.3     1  UNL1        0.0899
     15 C          59.9866   94.3922    0.6450 C.2     1  UNL1        0.1742
     16 N          59.2894   93.6515    1.7473 N.2     1  UNL1       -0.0716
     17 C          62.8558   96.2382   -2.2892 C.1     1  UNL1        0.0999
     18 N          63.8122   96.8536   -3.2673 N.1     1  UNL1       -0.1908
     19 C          59.3079   89.4570    7.3363 C.3     1  UNL1        0.0971
     20 C          60.1430   89.6199    8.5717 C.3     1  UNL1        0.1264
     21 C          62.9817   90.1165   12.0279 C.ar    1  UNL1        0.1593
     22 C          63.5324   88.9083   12.7256 C.ar    1  UNL1        0.1357
     23 N          63.1370   87.5346   12.2712 N.ar    1  UNL1       -0.2392
     24 C          62.1908   87.3690   11.1192 C.ar    1  UNL1        0.0975
     25 C          61.7953   85.9953   10.6649 C.ar    1  UNL1        0.0255
     26 C          60.8491   85.8297    9.5128 C.ar    1  UNL1        0.0623
     27 C          60.2983   87.0380    8.8151 C.ar    1  UNL1        0.2611
     28 O          59.3521   86.8724    7.6630 O.2     1  UNL1       -0.2670
     29 N          60.6937   88.4117    9.2694 N.ar    1  UNL1       -0.2926
     30 C          61.6400   88.5772   10.4215 C.ar    1  UNL1        0.0832
     31 C          62.0354   89.9510   10.8759 C.ar    1  UNL1        0.0573
     32 C          64.8274   91.8629   12.5694 C.3     1  UNL1        0.2525
     33 O          63.3771   91.4903   12.4822 O.3     1  UNL1       -0.4698
@<TRIPOS>BOND
     1    32    33    1
     2    33    21    1
     3    21    22   ar
     4    22    23   ar
     5    23    24   ar
     6    24    25   ar
     7    25    26   ar
     8    26    27   ar
     9    27    28    2
    10    27    29   ar
    11    29    20    1
    12    20    19    1
    13    19     1    1
    14     1     2    1
    15     2     3    1
    16     3     4    1
    17     4     7    1
    18     7     8    2
    19     8     9    1
    20     9    10    2
    21    10    11    1
    22    11    17    1
    23    17    18    3
    24    11    12    2
    25    12    13    1
    26    12    14    1
    27    14    15    1
    28    15    16    2
    29     4     5    1
    30     5     6    1
    31    29    30   ar
    32    30    31   ar
    33    31    21   ar
    34    30    24   ar
    35     6     1    1
    36    16     7    1
    37    15     9    1
@<TRIPOS>MOLECULE
*****
 33 37 0 0 0
SMALL
GASTEIGER

@<TRIPOS>ATOM
      1 N          72.7076   75.3824   14.7992 N.3     1  UNL1       -0.2655
      2 C          73.3624   76.7306   14.8589 C.3     1  UNL1        0.1132
      3 C          73.3677   77.6160   13.6482 C.3     1  UNL1        0.1849
      4 N          72.7183   77.1533   12.3778 N.pl3   1  UNL1       -0.1905
      5 C          72.0634   75.8051   12.3181 C.3     1  UNL1        0.1849
      6 C          72.0581   74.9196   13.5288 C.3     1  UNL1        0.1132
      7 C          72.7236   78.0388   11.1670 C.cat   1  UNL1        0.4230
      8 N          72.0097   79.3510   11.0312 N.2     1  UNL1       -0.0678
      9 C          72.2887   79.8907    9.6598 C.2     1  UNL1        0.1894
     10 C          71.8502   81.1469    8.9671 C.2     1  UNL1        0.0495
     11 C          72.2980   81.4243    7.5626 C.2     1  UNL1        0.0640
     12 C          73.1842   80.4456    6.8508 C.2     1  UNL1       -0.0267
     13 C          73.6319   80.7231    5.4464 C.3     1  UNL1        0.0275
     14 C          73.6227   79.1894    7.5434 C.3     1  UNL1        0.0899
     15 C          73.1749   78.9120    8.9479 C.2     1  UNL1        0.1742
     16 N          73.4437   77.7675    9.8795 N.2     1  UNL1       -0.0716
     17 C          71.8595   82.6805    6.8699 C.1     1  UNL1        0.0999
     18 N          71.4210   83.9366    6.1773 N.1     1  UNL1       -0.1908
     19 C          72.7022   74.4969   16.0100 C.3     1  UNL1        0.0971
     20 C          71.6492   73.4394   16.1612 C.3     1  UNL1        0.1264
     21 C          69.8470   70.6185   13.1538 C.ar    1  UNL1        0.1593
     22 C          70.2346   69.1694   13.1585 C.ar    1  UNL1        0.1357
     23 N          71.2229   68.6607   14.1657 N.ar    1  UNL1       -0.2392
     24 C          71.8236   69.6009   15.1682 C.ar    1  UNL1        0.0975
     25 C          72.8119   69.0922   16.1754 C.ar    1  UNL1        0.0255
     26 C          73.4126   70.0325   17.1778 C.ar    1  UNL1        0.0623
     27 C          73.0251   71.4816   17.1731 C.ar    1  UNL1        0.2611
     28 O          73.6258   72.4219   18.1756 O.2     1  UNL1       -0.2670
     29 N          72.0368   71.9903   16.1659 N.ar    1  UNL1       -0.2926
     30 C          71.4360   71.0500   15.1634 C.ar    1  UNL1        0.0832
     31 C          70.4478   71.5587   14.1562 C.ar    1  UNL1        0.0573
     32 C          67.8117   70.2073   11.5923 C.3     1  UNL1        0.2525
     33 O          68.8587   71.1272   12.1466 O.3     1  UNL1       -0.4698
@<TRIPOS>BOND
     1    32    33    1
     2    33    21    1
     3    21    22   ar
     4    22    23   ar
     5    23    24   ar
     6    24    25   ar
     7    25    26   ar
     8    26    27   ar
     9    27    28    2
    10    27    29   ar
    11    29    20    1
    12    20    19    1
    13    19     1    1
    14     1     2    1
    15     2     3    1
    16     3     4    1
    17     4     7    1
    18     7     8    2
    19     8     9    1
    20     9    10    2
    21    10    11    1
    22    11    17    1
    23    17    18    3
    24    11    12    2
    25    12    13    1
    26    12    14    1
    27    14    15    1
    28    15    16    2
    29     4     5    1
    30     5     6    1
    31    29    30   ar
    32    30    31   ar
    33    31    21   ar
    34    30    24   ar
    35     6     1    1
    36    16     7    1
    37    15     9    1
