@<TRIPOS>MOLECULE
*****
 36 38 0 0 0
SMALL
GASTEIGER

@<TRIPOS>ATOM
      1 C          64.4036   90.1578   15.1546 C.ar    1  UNL1        0.0876
      2 C          63.5613   90.3570   16.3796 C.ar    1  UNL1        0.0202
      3 C          62.9615   89.1729   17.0781 C.ar    1  UNL1        0.0131
      4 C          63.2041   87.7894   16.5516 C.ar    1  UNL1        0.0621
      5 CL         62.6043   86.6052   17.2501 Cl      1  UNL1       -0.0821
      6 C          64.0464   87.5901   15.3266 C.ar    1  UNL1        0.0654
      7 C          64.6462   88.7744   14.6280 C.ar    1  UNL1        0.0247
      8 N          65.3698   92.7285   12.2896 N.ar    1  UNL1       -0.2434
      9 C          66.2030   93.7103   13.0589 C.ar    1  UNL1        0.2855
     10 O          66.8028   94.8945   12.3603 O.2     1  UNL1       -0.2651
     11 C          66.4364   93.5080   14.5267 C.ar    1  UNL1        0.1813
     12 N          65.8366   92.3238   15.2253 N.ar    1  UNL1       -0.1547
     13 N          65.0034   91.3419   14.4560 N.ar    1  UNL1       -0.1797
     14 C          64.7701   91.5443   12.9881 C.ar    1  UNL1        0.3536
     15 O          63.9369   90.5624   12.2188 O.2     1  UNL1       -0.2443
     16 C          65.1365   92.9308   10.8217 C.3     1  UNL1        0.1453
     17 C          65.6834   94.1477   10.1361 C.3     1  UNL1        0.1627
     18 O          65.0043   95.4741   10.3078 O.3     1  UNL1       -0.3799
     19 H          65.6604   96.1849   10.2357 H       1  UNL1        0.2105
     20 C          66.9093   94.0381    9.2787 C.3     1  UNL1        0.1733
     21 C          68.8943   92.3671    9.1466 C.3     1  UNL1        0.1742
     22 O          68.1782   93.4803    9.8522 O.3     1  UNL1       -0.3485
     23 C          64.2890   86.2067   14.8000 C.2     1  UNL1        0.2468
     24 O          65.6669   85.6159   14.8503 O.2     1  UNL1       -0.2701
     25 N          63.1537   85.4140   14.2232 N.am    1  UNL1       -0.2986
     26 H          62.2494   85.8017   14.1901 H       1  UNL1        0.1498
     27 C          63.3963   84.0305   13.6966 C.3     1  UNL1        0.1165
     28 C          63.6831   83.8224   12.2391 C.3     1  UNL1        0.1063
     29 O          64.5565   82.7979   12.9006 O.3     1  UNL1       -0.3851
     30 C          64.3586   83.1582   11.0760 C.3     1  UNL1        0.0286
     31 C          64.1999   83.4473    9.6126 C.3     1  UNL1        0.0025
     32 C          63.3266   84.4717    8.9510 C.3     1  UNL1        0.0001
     33 C          62.3962   85.4602    9.5893 C.3     1  UNL1        0.0001
     34 C          62.1094   85.6684   11.0468 C.3     1  UNL1        0.0025
     35 C          62.6822   84.9394   12.2260 C.3     1  UNL1        0.0286
     36 H          65.0456   82.3044   12.2238 H       1  UNL1        0.2103
@<TRIPOS>BOND
     1    21    22    1
     2    22    20    1
     3    20    17    1
     4    17    18    1
     5    17    16    1
     6    16     8    1
     7     8     9   ar
     8     9    10    2
     9     9    11   ar
    10    11    12   ar
    11    12    13   ar
    12    13     1    1
    13     1     2   ar
    14     2     3   ar
    15     3     4   ar
    16     4     5    1
    17     4     6   ar
    18     6    23    1
    19    23    24    2
    20    23    25   am
    21    25    27    1
    22    27    28    1
    23    28    29    1
    24    28    30    1
    25    30    31    1
    26    31    32    1
    27    32    33    1
    28    33    34    1
    29    34    35    1
    30     6     7   ar
    31    13    14   ar
    32    14    15    2
    33    14     8   ar
    34     7     1   ar
    35    35    28    1
    36    18    19    1
    37    25    26    1
    38    29    36    1
@<TRIPOS>MOLECULE
*****
 36 38 0 0 0
SMALL
GASTEIGER

@<TRIPOS>ATOM
      1 C          62.2699   89.3302   11.6335 C.ar    1  UNL1        0.0876
      2 C          60.9726   89.8679   11.1064 C.ar    1  UNL1        0.0202
      3 C          60.1419   89.0397   10.1716 C.ar    1  UNL1        0.0131
      4 C          60.6084   87.6736    9.7639 C.ar    1  UNL1        0.0621
      5 CL         59.7777   86.8453    8.8292 Cl      1  UNL1       -0.0821
      6 C          61.9057   87.1358   10.2910 C.ar    1  UNL1        0.0654
      7 C          62.7365   87.9642   11.2258 C.ar    1  UNL1        0.0247
      8 N          64.8359   92.0524   12.9584 N.ar    1  UNL1       -0.2434
      9 C          64.7622   91.8150   14.4377 C.ar    1  UNL1        0.2855
     10 O          65.5930   92.6434   15.3725 O.2     1  UNL1       -0.2651
     11 C          63.8578   90.7495   14.9822 C.ar    1  UNL1        0.1813
     12 N          63.0270   89.9211   14.0475 N.ar    1  UNL1       -0.1547
     13 N          63.1007   90.1584   12.5682 N.ar    1  UNL1       -0.1797
     14 C          64.0051   91.2241   12.0237 C.ar    1  UNL1        0.3536
     15 O          64.0788   91.4614   10.5444 O.2     1  UNL1       -0.2443
     16 C          65.7403   93.1180   12.4139 C.3     1  UNL1        0.1453
     17 C          67.0219   92.7382   11.7333 C.3     1  UNL1        0.1627
     18 O          68.0963   92.0262   12.5006 O.3     1  UNL1       -0.3799
     19 H          68.6014   91.4581   11.8982 H       1  UNL1        0.2105
     20 C          67.2291   93.0704   10.2853 C.3     1  UNL1        0.1733
     21 C          67.5621   95.1882    8.8175 C.3     1  UNL1        0.1742
     22 O          68.0448   94.2689    9.9000 O.3     1  UNL1       -0.3485
     23 C          62.3723   85.7698    9.8833 C.2     1  UNL1        0.2468
     24 O          62.2550   85.3330    8.4531 O.2     1  UNL1       -0.2701
     25 N          62.9562   84.8405   10.9058 N.am    1  UNL1       -0.2986
     26 H          63.0332   85.1272   11.8445 H       1  UNL1        0.1498
     27 C          63.4228   83.4744   10.4981 C.3     1  UNL1        0.1165
     28 C          63.0981   82.2850   11.3524 C.3     1  UNL1        0.1063
     29 O          63.4592   81.6621   10.0365 O.3     1  UNL1       -0.3851
     30 C          62.9341   80.8183   11.6211 C.3     1  UNL1        0.0286
     31 C          62.5130   80.1417   12.8919 C.3     1  UNL1        0.0025
     32 C          62.1519   80.7645   14.2077 C.3     1  UNL1        0.0001
     33 C          62.1227   82.2179   14.5780 C.3     1  UNL1        0.0001
     34 C          62.4474   83.4073   13.7236 C.3     1  UNL1        0.0025
     35 C          62.8815   83.4371   12.2881 C.3     1  UNL1        0.0286
     36 H          63.3842   80.6974   10.1041 H       1  UNL1        0.2103
@<TRIPOS>BOND
     1    21    22    1
     2    22    20    1
     3    20    17    1
     4    17    18    1
     5    17    16    1
     6    16     8    1
     7     8     9   ar
     8     9    10    2
     9     9    11   ar
    10    11    12   ar
    11    12    13   ar
    12    13     1    1
    13     1     2   ar
    14     2     3   ar
    15     3     4   ar
    16     4     5    1
    17     4     6   ar
    18     6    23    1
    19    23    24    2
    20    23    25   am
    21    25    27    1
    22    27    28    1
    23    28    29    1
    24    28    30    1
    25    30    31    1
    26    31    32    1
    27    32    33    1
    28    33    34    1
    29    34    35    1
    30     6     7   ar
    31    13    14   ar
    32    14    15    2
    33    14     8   ar
    34     7     1   ar
    35    35    28    1
    36    18    19    1
    37    25    26    1
    38    29    36    1
@<TRIPOS>MOLECULE
*****
 36 38 0 0 0
SMALL
GASTEIGER

@<TRIPOS>ATOM
      1 C          61.9994   85.9511    9.8124 C.ar    1  UNL1        0.0876
      2 C          60.9601   85.6847    8.7641 C.ar    1  UNL1        0.0202
      3 C          60.1916   86.8241    8.1632 C.ar    1  UNL1        0.0131
      4 C          60.4624   88.2300    8.6106 C.ar    1  UNL1        0.0621
      5 CL         59.6940   89.3695    8.0097 Cl      1  UNL1       -0.0821
      6 C          61.5017   88.4964    9.6589 C.ar    1  UNL1        0.0654
      7 C          62.2702   87.3569   10.2598 C.ar    1  UNL1        0.0247
      8 N          63.5698   83.4926   12.5030 N.ar    1  UNL1       -0.2434
      9 C          64.3048   82.5327   11.6151 C.ar    1  UNL1        0.2855
     10 O          65.0733   81.3933   12.2160 O.2     1  UNL1       -0.2651
     11 C          64.2713   82.7123   10.1263 C.ar    1  UNL1        0.1813
     12 N          63.5028   83.8518    9.5253 N.ar    1  UNL1       -0.1547
     13 N          62.7679   84.8116   10.4132 N.ar    1  UNL1       -0.1797
     14 C          62.8014   84.6321   11.9021 C.ar    1  UNL1        0.3536
     15 O          62.0664   85.5919   12.7901 O.2     1  UNL1       -0.2443
     16 C          63.6033   83.3130   13.9919 C.3     1  UNL1        0.1453
     17 C          64.4476   84.2194   14.8379 C.3     1  UNL1        0.1627
     18 O          65.9273   84.2994   14.6053 O.3     1  UNL1       -0.3799
     19 H          66.2450   85.1838   14.8457 H       1  UNL1        0.2105
     20 C          63.8121   85.0458   15.9163 C.3     1  UNL1        0.1733
     21 C          64.4156   87.3031   14.7802 C.3     1  UNL1        0.1742
     22 O          63.5216   86.4977   15.6758 O.3     1  UNL1       -0.3485
     23 C          61.7726   89.9023   10.1063 C.2     1  UNL1        0.2468
     24 O          60.6412   90.7755   10.5620 O.2     1  UNL1       -0.2701
     25 N          63.1747   90.4350   10.0980 N.am    1  UNL1       -0.2986
     26 H          63.9173   89.8620    9.7989 H       1  UNL1        0.1498
     27 C          63.4455   91.8410   10.5454 C.3     1  UNL1        0.1165
     28 C          64.6570   92.1433   11.3766 C.3     1  UNL1        0.1063
     29 O          64.8754   92.9809   10.1515 O.3     1  UNL1       -0.3851
     30 C          65.9657   92.8184   11.6625 C.3     1  UNL1        0.0286
     31 C          66.8402   92.6880   12.8744 C.3     1  UNL1        0.0025
     32 C          66.6219   91.8505   14.0994 C.3     1  UNL1        0.0001
     33 C          65.4753   90.9364   14.4153 C.3     1  UNL1        0.0001
     34 C          64.2638   90.6341   13.5841 C.3     1  UNL1        0.0025
     35 C          63.8997   91.1712   12.2317 C.3     1  UNL1        0.0286
     36 H          65.7104   93.4670   10.2368 H       1  UNL1        0.2103
@<TRIPOS>BOND
     1    21    22    1
     2    22    20    1
     3    20    17    1
     4    17    18    1
     5    17    16    1
     6    16     8    1
     7     8     9   ar
     8     9    10    2
     9     9    11   ar
    10    11    12   ar
    11    12    13   ar
    12    13     1    1
    13     1     2   ar
    14     2     3   ar
    15     3     4   ar
    16     4     5    1
    17     4     6   ar
    18     6    23    1
    19    23    24    2
    20    23    25   am
    21    25    27    1
    22    27    28    1
    23    28    29    1
    24    28    30    1
    25    30    31    1
    26    31    32    1
    27    32    33    1
    28    33    34    1
    29    34    35    1
    30     6     7   ar
    31    13    14   ar
    32    14    15    2
    33    14     8   ar
    34     7     1   ar
    35    35    28    1
    36    18    19    1
    37    25    26    1
    38    29    36    1
@<TRIPOS>MOLECULE
*****
 36 38 0 0 0
SMALL
GASTEIGER

@<TRIPOS>ATOM
      1 C          63.8868   88.8150   14.3646 C.ar    1  UNL1        0.0876
      2 C          63.2364   88.9780   15.7065 C.ar    1  UNL1        0.0202
      3 C          63.4984   90.2091   16.5223 C.ar    1  UNL1        0.0131
      4 C          64.4108   91.2773   15.9963 C.ar    1  UNL1        0.0621
      5 CL         64.6727   92.5085   16.8122 Cl      1  UNL1       -0.0821
      6 C          65.0611   91.1143   14.6545 C.ar    1  UNL1        0.0654
      7 C          64.7991   89.8831   13.8386 C.ar    1  UNL1        0.0247
      8 N          63.9071   85.0278   13.1786 N.ar    1  UNL1       -0.2434
      9 C          63.1009   85.1215   11.9171 C.ar    1  UNL1        0.2855
     10 O          62.8389   83.8902   11.1013 O.2     1  UNL1       -0.2651
     11 C          62.5567   86.4463   11.4715 C.ar    1  UNL1        0.1813
     12 N          62.8187   87.6775   12.2873 N.ar    1  UNL1       -0.1547
     13 N          63.6248   87.5838   13.5488 N.ar    1  UNL1       -0.1797
     14 C          64.1690   86.2589   13.9944 C.ar    1  UNL1        0.3536
     15 O          64.9752   86.1652   15.2559 O.2     1  UNL1       -0.2443
     16 C          64.4513   83.7029   13.6242 C.3     1  UNL1        0.1453
     17 C          63.5589   82.7239   14.3280 C.3     1  UNL1        0.1627
     18 O          62.9233   83.0939   15.6353 O.3     1  UNL1       -0.3799
     19 H          62.0759   82.6306   15.7254 H       1  UNL1        0.2105
     20 C          63.3022   81.3749   13.7244 C.3     1  UNL1        0.1733
     21 C          60.7920   80.8251   14.1070 C.3     1  UNL1        0.1742
     22 O          62.2402   80.4855   14.3000 O.3     1  UNL1       -0.3485
     23 C          65.9734   92.1825   14.1285 C.2     1  UNL1        0.2468
     24 O          67.3561   92.3316   14.6907 O.2     1  UNL1       -0.2701
     25 N          65.5031   93.1016   13.0403 N.am    1  UNL1       -0.2986
     26 H          64.5956   93.0037   12.6714 H       1  UNL1        0.1498
     27 C          66.4155   94.1698   12.5144 C.3     1  UNL1        0.1165
     28 C          66.7446   94.2217   11.0518 C.3     1  UNL1        0.1063
     29 O          67.2593   92.8738   11.4621 O.3     1  UNL1       -0.3851
     30 C          67.3029   93.6736    9.7719 C.3     1  UNL1        0.0286
     31 C          67.3377   94.3152    8.4164 C.3     1  UNL1        0.0025
     32 C          66.8230   95.6629    8.0061 C.3     1  UNL1        0.0001
     33 C          66.1463   96.7022    8.8498 C.3     1  UNL1        0.0001
     34 C          65.8171   96.6503   10.3124 C.3     1  UNL1        0.0025
     35 C          66.0835   95.5463   11.2923 C.3     1  UNL1        0.0286
     36 H          67.6477   92.4282   10.6930 H       1  UNL1        0.2103
@<TRIPOS>BOND
     1    21    22    1
     2    22    20    1
     3    20    17    1
     4    17    18    1
     5    17    16    1
     6    16     8    1
     7     8     9   ar
     8     9    10    2
     9     9    11   ar
    10    11    12   ar
    11    12    13   ar
    12    13     1    1
    13     1     2   ar
    14     2     3   ar
    15     3     4   ar
    16     4     5    1
    17     4     6   ar
    18     6    23    1
    19    23    24    2
    20    23    25   am
    21    25    27    1
    22    27    28    1
    23    28    29    1
    24    28    30    1
    25    30    31    1
    26    31    32    1
    27    32    33    1
    28    33    34    1
    29    34    35    1
    30     6     7   ar
    31    13    14   ar
    32    14    15    2
    33    14     8   ar
    34     7     1   ar
    35    35    28    1
    36    18    19    1
    37    25    26    1
    38    29    36    1
@<TRIPOS>MOLECULE
*****
 36 38 0 0 0
SMALL
GASTEIGER

@<TRIPOS>ATOM
      1 C          61.9254   86.8982   10.7884 C.ar    1  UNL1        0.0876
      2 C          60.4466   87.1022   10.6427 C.ar    1  UNL1        0.0202
      3 C          59.8693   88.4847   10.7163 C.ar    1  UNL1        0.0131
      4 C          60.7710   89.6633   10.9357 C.ar    1  UNL1        0.0621
      5 CL         60.1938   91.0458   11.0093 Cl      1  UNL1       -0.0821
      6 C          62.2499   89.4592   11.0814 C.ar    1  UNL1        0.0654
      7 C          62.8271   88.0766   11.0078 C.ar    1  UNL1        0.0247
      8 N          63.0661   83.2491   11.8529 N.ar    1  UNL1       -0.2434
      9 C          63.6571   82.7506   10.5675 C.ar    1  UNL1        0.2855
     10 O          64.2343   81.3680   10.4940 O.2     1  UNL1       -0.2651
     11 C          63.6709   83.6345    9.3558 C.ar    1  UNL1        0.1813
     12 N          63.0936   85.0171    9.4294 N.ar    1  UNL1       -0.1547
     13 N          62.5027   85.5157   10.7148 N.ar    1  UNL1       -0.1797
     14 C          62.4889   84.6316   11.9266 C.ar    1  UNL1        0.3536
     15 O          61.8980   85.1302   13.2120 O.2     1  UNL1       -0.2443
     16 C          63.0524   82.3651   13.0647 C.3     1  UNL1        0.1453
     17 C          63.4405   82.9207   14.4028 C.3     1  UNL1        0.1627
     18 O          62.6609   82.5417   15.6270 O.3     1  UNL1       -0.3799
     19 H          63.2451   82.5608   16.4011 H       1  UNL1        0.2105
     20 C          64.6082   83.8552   14.5168 C.3     1  UNL1        0.1733
     21 C          64.6372   86.4360   14.8144 C.3     1  UNL1        0.1742
     22 O          64.5196   85.0617   15.4037 O.3     1  UNL1       -0.3485
     23 C          63.1516   90.6377   11.3008 C.2     1  UNL1        0.2468
     24 O          63.2155   91.7337   10.2787 O.2     1  UNL1       -0.2701
     25 N          63.9894   90.7201   12.5423 N.am    1  UNL1       -0.2986
     26 H          63.9475   90.0008   13.2131 H       1  UNL1        0.1498
     27 C          64.8912   91.8987   12.7617 C.3     1  UNL1        0.1165
     28 C          65.5996   92.0671   14.0731 C.3     1  UNL1        0.1063
     29 O          64.1614   91.9515   14.4832 O.3     1  UNL1       -0.3851
     30 C          65.6679   92.1841   15.5670 C.3     1  UNL1        0.0286
     31 C          66.8762   92.3707   16.4362 C.3     1  UNL1        0.0025
     32 C          68.3143   92.4863   16.0261 C.3     1  UNL1        0.0001
     33 C          68.8996   92.4439   14.6457 C.3     1  UNL1        0.0001
     34 C          68.1912   92.2755   13.3343 C.3     1  UNL1        0.0025
     35 C          66.7225   92.1078   13.0795 C.3     1  UNL1        0.0286
     36 H          64.0943   92.0159   15.4487 H       1  UNL1        0.2103
@<TRIPOS>BOND
     1    21    22    1
     2    22    20    1
     3    20    17    1
     4    17    18    1
     5    17    16    1
     6    16     8    1
     7     8     9   ar
     8     9    10    2
     9     9    11   ar
    10    11    12   ar
    11    12    13   ar
    12    13     1    1
    13     1     2   ar
    14     2     3   ar
    15     3     4   ar
    16     4     5    1
    17     4     6   ar
    18     6    23    1
    19    23    24    2
    20    23    25   am
    21    25    27    1
    22    27    28    1
    23    28    29    1
    24    28    30    1
    25    30    31    1
    26    31    32    1
    27    32    33    1
    28    33    34    1
    29    34    35    1
    30     6     7   ar
    31    13    14   ar
    32    14    15    2
    33    14     8   ar
    34     7     1   ar
    35    35    28    1
    36    18    19    1
    37    25    26    1
    38    29    36    1
@<TRIPOS>MOLECULE
*****
 36 38 0 0 0
SMALL
GASTEIGER

@<TRIPOS>ATOM
      1 C          63.5488   89.5691   13.0917 C.ar    1  UNL1        0.0876
      2 C          63.2621   89.3187   14.5426 C.ar    1  UNL1        0.0202
      3 C          63.8840   90.1920   15.5916 C.ar    1  UNL1        0.0131
      4 C          64.7927   91.3158   15.1898 C.ar    1  UNL1        0.0621
      5 CL         65.4146   92.1891   16.2388 Cl      1  UNL1       -0.0821
      6 C          65.0794   91.5662   13.7389 C.ar    1  UNL1        0.0654
      7 C          64.4575   90.6928   12.6899 C.ar    1  UNL1        0.0247
      8 N          62.2316   86.3384   11.2002 N.ar    1  UNL1       -0.2434
      9 C          61.6831   86.9490    9.9446 C.ar    1  UNL1        0.2855
     10 O          61.0612   86.0756    8.8956 O.2     1  UNL1       -0.2651
     11 C          61.7565   88.4328    9.7381 C.ar    1  UNL1        0.1813
     12 N          62.3784   89.3063   10.7872 N.ar    1  UNL1       -0.1547
     13 N          62.9269   88.6957   12.0427 N.ar    1  UNL1       -0.1797
     14 C          62.8535   87.2118   12.2492 C.ar    1  UNL1        0.3536
     15 O          63.4020   86.6012   13.5047 O.2     1  UNL1       -0.2443
     16 C          62.1582   84.8545   11.4067 C.3     1  UNL1        0.1453
     17 C          63.3897   84.0132   11.2468 C.3     1  UNL1        0.1627
     18 O          64.1453   84.0283    9.9511 O.3     1  UNL1       -0.3799
     19 H          65.0846   83.8572   10.1226 H       1  UNL1        0.2105
     20 C          63.8655   83.1568   12.3826 C.3     1  UNL1        0.1733
     21 C          64.4491   83.5654   14.8811 C.3     1  UNL1        0.1742
     22 O          64.7753   83.7333   13.4267 O.3     1  UNL1       -0.3485
     23 C          65.9881   92.6899   13.3371 C.2     1  UNL1        0.2468
     24 O          67.3855   92.7547   13.8785 O.2     1  UNL1       -0.2701
     25 N          65.4994   93.7489   12.3938 N.am    1  UNL1       -0.2986
     26 H          64.5823   93.7064   12.0384 H       1  UNL1        0.1498
     27 C          66.4082   94.8726   11.9919 C.3     1  UNL1        0.1165
     28 C          66.1939   95.5803   10.6868 C.3     1  UNL1        0.1063
     29 O          65.4377   96.4366   11.6589 O.3     1  UNL1       -0.3851
     30 C          65.6430   96.6692    9.8144 C.3     1  UNL1        0.0286
     31 C          65.8077   96.8556    8.3351 C.3     1  UNL1        0.0025
     32 C          66.5638   95.9994    7.3631 C.3     1  UNL1        0.0001
     33 C          67.3421   94.7451    7.6300 C.3     1  UNL1        0.0001
     34 C          67.5564   94.0374    8.9351 C.3     1  UNL1        0.0025
     35 C          67.0453   94.4092   10.2955 C.3     1  UNL1        0.0286
     36 H          65.0355   97.1829   11.1875 H       1  UNL1        0.2103
@<TRIPOS>BOND
     1    21    22    1
     2    22    20    1
     3    20    17    1
     4    17    18    1
     5    17    16    1
     6    16     8    1
     7     8     9   ar
     8     9    10    2
     9     9    11   ar
    10    11    12   ar
    11    12    13   ar
    12    13     1    1
    13     1     2   ar
    14     2     3   ar
    15     3     4   ar
    16     4     5    1
    17     4     6   ar
    18     6    23    1
    19    23    24    2
    20    23    25   am
    21    25    27    1
    22    27    28    1
    23    28    29    1
    24    28    30    1
    25    30    31    1
    26    31    32    1
    27    32    33    1
    28    33    34    1
    29    34    35    1
    30     6     7   ar
    31    13    14   ar
    32    14    15    2
    33    14     8   ar
    34     7     1   ar
    35    35    28    1
    36    18    19    1
    37    25    26    1
    38    29    36    1
@<TRIPOS>MOLECULE
*****
 36 38 0 0 0
SMALL
GASTEIGER

@<TRIPOS>ATOM
      1 C          63.8175   89.2273   14.2721 C.ar    1  UNL1        0.0876
      2 C          63.2755   89.2830   15.6697 C.ar    1  UNL1        0.0202
      3 C          63.6223   90.4368   16.5632 C.ar    1  UNL1        0.0131
      4 C          64.5112   91.5349   16.0592 C.ar    1  UNL1        0.0621
      5 CL         64.8581   92.6887   16.9528 Cl      1  UNL1       -0.0821
      6 C          65.0533   91.4792   14.6617 C.ar    1  UNL1        0.0654
      7 C          64.7064   90.3254   13.7681 C.ar    1  UNL1        0.0247
      8 N          63.5349   85.5277   12.8639 N.ar    1  UNL1       -0.2434
      9 C          62.7770   85.7659   11.5915 C.ar    1  UNL1        0.2855
     10 O          62.4302   84.6120   10.6980 O.2     1  UNL1       -0.2651
     11 C          62.3659   87.1578   11.2127 C.ar    1  UNL1        0.1813
     12 N          62.7128   88.3116   12.1063 N.ar    1  UNL1       -0.1547
     13 N          63.4707   88.0735   13.3786 N.ar    1  UNL1       -0.1797
     14 C          63.8818   86.6815   13.7574 C.ar    1  UNL1        0.3536
     15 O          64.6397   86.4434   15.0298 O.2     1  UNL1       -0.2443
     16 C          63.9460   84.1357   13.2427 C.3     1  UNL1        0.1453
     17 C          63.7858   83.6653   14.6579 C.3     1  UNL1        0.1627
     18 O          64.9896   83.2515   15.4515 O.3     1  UNL1       -0.3799
     19 H          64.8331   83.4286   16.3923 H       1  UNL1        0.2105
     20 C          62.4219   83.6087   15.2796 C.3     1  UNL1        0.1733
     21 C          62.2131   85.5797   16.9594 C.3     1  UNL1        0.1742
     22 O          61.7461   84.8729   15.7216 O.3     1  UNL1       -0.3485
     23 C          65.9421   92.5773   14.1577 C.2     1  UNL1        0.2468
     24 O          67.2191   92.8980   14.8764 O.2     1  UNL1       -0.2701
     25 N          65.5540   93.3548   12.9350 N.am    1  UNL1       -0.2986
     26 H          64.7159   93.1443   12.4633 H       1  UNL1        0.1498
     27 C          66.4430   94.4529   12.4310 C.3     1  UNL1        0.1165
     28 C          66.8035   94.5179   10.9764 C.3     1  UNL1        0.1063
     29 O          66.0974   95.8216   11.2038 O.3     1  UNL1       -0.3851
     30 C          66.8498   95.1632    9.6230 C.3     1  UNL1        0.0286
     31 C          67.4532   94.6351    8.3553 C.3     1  UNL1        0.0025
     32 C          68.1593   93.3315    8.1279 C.3     1  UNL1        0.0001
     33 C          68.4366   92.2339    9.1120 C.3     1  UNL1        0.0001
     34 C          68.0760   92.1688   10.5665 C.3     1  UNL1        0.0025
     35 C          67.3492   93.1854   11.3962 C.3     1  UNL1        0.0286
     36 H          66.0724   96.3247   10.3748 H       1  UNL1        0.2103
@<TRIPOS>BOND
     1    21    22    1
     2    22    20    1
     3    20    17    1
     4    17    18    1
     5    17    16    1
     6    16     8    1
     7     8     9   ar
     8     9    10    2
     9     9    11   ar
    10    11    12   ar
    11    12    13   ar
    12    13     1    1
    13     1     2   ar
    14     2     3   ar
    15     3     4   ar
    16     4     5    1
    17     4     6   ar
    18     6    23    1
    19    23    24    2
    20    23    25   am
    21    25    27    1
    22    27    28    1
    23    28    29    1
    24    28    30    1
    25    30    31    1
    26    31    32    1
    27    32    33    1
    28    33    34    1
    29    34    35    1
    30     6     7   ar
    31    13    14   ar
    32    14    15    2
    33    14     8   ar
    34     7     1   ar
    35    35    28    1
    36    18    19    1
    37    25    26    1
    38    29    36    1
@<TRIPOS>MOLECULE
*****
 36 38 0 0 0
SMALL
GASTEIGER

@<TRIPOS>ATOM
      1 C          64.1248   89.7670   14.3114 C.ar    1  UNL1        0.0876
      2 C          65.2804   90.6923   14.5533 C.ar    1  UNL1        0.0202
      3 C          65.6430   91.7237   13.5263 C.ar    1  UNL1        0.0131
      4 C          64.8501   91.8298   12.2573 C.ar    1  UNL1        0.0621
      5 CL         65.2128   92.8611   11.2304 Cl      1  UNL1       -0.0821
      6 C          63.6945   90.9045   12.0155 C.ar    1  UNL1        0.0654
      7 C          63.3319   89.8731   13.0426 C.ar    1  UNL1        0.0247
      8 N          63.5584   86.2459   16.0524 N.ar    1  UNL1       -0.2434
      9 C          63.0368   86.6729   17.3924 C.ar    1  UNL1        0.2855
     10 O          62.6741   85.6415   18.4194 O.2     1  UNL1       -0.2651
     11 C          62.8778   88.1312   17.7054 C.ar    1  UNL1        0.1813
     12 N          63.2404   89.1626   16.6784 N.ar    1  UNL1       -0.1547
     13 N          63.7621   88.7357   15.3384 N.ar    1  UNL1       -0.1797
     14 C          63.9211   87.2773   15.0254 C.ar    1  UNL1        0.3536
     15 O          64.4428   86.8503   13.6854 O.2     1  UNL1       -0.2443
     16 C          63.7174   84.7875   15.7394 C.3     1  UNL1        0.1453
     17 C          62.8187   84.1344   14.7316 C.3     1  UNL1        0.1627
     18 O          62.3759   84.8953   13.5171 O.3     1  UNL1       -0.3799
     19 H          62.2309   84.2775   12.7835 H       1  UNL1        0.2105
     20 C          62.3628   82.7205   14.9382 C.3     1  UNL1        0.1733
     21 C          62.5138   80.5906   13.4581 C.3     1  UNL1        0.1742
     22 O          63.1637   81.5842   14.3746 O.3     1  UNL1       -0.3485
     23 C          62.9016   91.0106   10.7467 C.2     1  UNL1        0.2468
     24 O          63.3363   91.9574    9.6675 O.2     1  UNL1       -0.2701
     25 N          61.6740   90.1698   10.5569 N.am    1  UNL1       -0.2986
     26 H          61.3886   89.5484   11.2652 H       1  UNL1        0.1498
     27 C          60.8810   90.2759    9.2880 C.3     1  UNL1        0.1165
     28 C          60.3593   89.0363    8.6238 C.3     1  UNL1        0.1063
     29 O          59.4297   90.1008    8.1210 O.3     1  UNL1       -0.3851
     30 C          59.4238   88.2705    7.7358 C.3     1  UNL1        0.0286
     31 C          59.4191   86.8026    7.4269 C.3     1  UNL1        0.0025
     32 C          60.3486   85.7382    7.9296 C.3     1  UNL1        0.0001
     33 C          61.5125   85.8785    8.8654 C.3     1  UNL1        0.0001
     34 C          62.0343   87.1181    9.5296 C.3     1  UNL1        0.0025
     35 C          61.5210   88.5235    9.4220 C.3     1  UNL1        0.0286
     36 H          58.7737   89.7031    7.5274 H       1  UNL1        0.2103
@<TRIPOS>BOND
     1    21    22    1
     2    22    20    1
     3    20    17    1
     4    17    18    1
     5    17    16    1
     6    16     8    1
     7     8     9   ar
     8     9    10    2
     9     9    11   ar
    10    11    12   ar
    11    12    13   ar
    12    13     1    1
    13     1     2   ar
    14     2     3   ar
    15     3     4   ar
    16     4     5    1
    17     4     6   ar
    18     6    23    1
    19    23    24    2
    20    23    25   am
    21    25    27    1
    22    27    28    1
    23    28    29    1
    24    28    30    1
    25    30    31    1
    26    31    32    1
    27    32    33    1
    28    33    34    1
    29    34    35    1
    30     6     7   ar
    31    13    14   ar
    32    14    15    2
    33    14     8   ar
    34     7     1   ar
    35    35    28    1
    36    18    19    1
    37    25    26    1
    38    29    36    1
@<TRIPOS>MOLECULE
*****
 36 38 0 0 0
SMALL
GASTEIGER

@<TRIPOS>ATOM
      1 C          63.5763   89.4463   13.4638 C.ar    1  UNL1        0.0876
      2 C          63.1453   89.3218   14.8952 C.ar    1  UNL1        0.0202
      3 C          63.6668   90.2831   15.9217 C.ar    1  UNL1        0.0131
      4 C          64.6192   91.3690   15.5170 C.ar    1  UNL1        0.0621
      5 CL         65.1407   92.3304   16.5436 Cl      1  UNL1       -0.0821
      6 C          65.0502   91.4935   14.0856 C.ar    1  UNL1        0.0654
      7 C          64.5287   90.5321   13.0590 C.ar    1  UNL1        0.0247
      8 N          61.8067   88.0372   10.2030 N.ar    1  UNL1       -0.2434
      9 C          62.0119   86.5623   10.3840 C.ar    1  UNL1        0.2855
     10 O          61.4904   85.6010    9.3573 O.2     1  UNL1       -0.2651
     11 C          62.7386   86.0488   11.5915 C.ar    1  UNL1        0.1813
     12 N          63.2601   87.0102   12.6182 N.ar    1  UNL1       -0.1547
     13 N          63.0549   88.4850   12.4372 N.ar    1  UNL1       -0.1797
     14 C          62.3281   88.9985   11.2296 C.ar    1  UNL1        0.3536
     15 O          62.1229   90.4733   11.0486 O.2     1  UNL1       -0.2443
     16 C          61.0800   88.5507    8.9954 C.3     1  UNL1        0.1453
     17 C          59.7285   88.0029    8.6441 C.3     1  UNL1        0.1627
     18 O          59.0188   87.0885    9.5981 O.3     1  UNL1       -0.3799
     19 H          58.0601   87.1951    9.4955 H       1  UNL1        0.2105
     20 C          59.0868   88.3694    7.3389 C.3     1  UNL1        0.1733
     21 C          59.7504   90.2188    5.6389 C.3     1  UNL1        0.1742
     22 O          59.0492   89.8027    6.8980 O.3     1  UNL1       -0.3485
     23 C          66.0026   92.5793   13.6809 C.2     1  UNL1        0.2468
     24 O          67.3676   92.6486   14.2990 O.2     1  UNL1       -0.2701
     25 N          65.5901   93.5959   12.6579 N.am    1  UNL1       -0.2986
     26 H          64.6942   93.5505   12.2522 H       1  UNL1        0.1498
     27 C          66.5426   94.6818   12.2532 C.3     1  UNL1        0.1165
     28 C          66.3034   95.4574   10.9917 C.3     1  UNL1        0.1063
     29 O          65.5777   96.2678   12.0244 O.3     1  UNL1       -0.3851
     30 C          65.7413   96.5937   10.1899 C.3     1  UNL1        0.0286
     31 C          65.8725   96.8550    8.7186 C.3     1  UNL1        0.0025
     32 C          66.5982   96.0447    7.6860 C.3     1  UNL1        0.0001
     33 C          67.3720   94.7728    7.8693 C.3     1  UNL1        0.0001
     34 C          67.6112   93.9972    9.1308 C.3     1  UNL1        0.0025
     35 C          67.1356   94.3019   10.5204 C.3     1  UNL1        0.0286
     36 H          65.1707   97.0403   11.6018 H       1  UNL1        0.2103
@<TRIPOS>BOND
     1    21    22    1
     2    22    20    1
     3    20    17    1
     4    17    18    1
     5    17    16    1
     6    16     8    1
     7     8     9   ar
     8     9    10    2
     9     9    11   ar
    10    11    12   ar
    11    12    13   ar
    12    13     1    1
    13     1     2   ar
    14     2     3   ar
    15     3     4   ar
    16     4     5    1
    17     4     6   ar
    18     6    23    1
    19    23    24    2
    20    23    25   am
    21    25    27    1
    22    27    28    1
    23    28    29    1
    24    28    30    1
    25    30    31    1
    26    31    32    1
    27    32    33    1
    28    33    34    1
    29    34    35    1
    30     6     7   ar
    31    13    14   ar
    32    14    15    2
    33    14     8   ar
    34     7     1   ar
    35    35    28    1
    36    18    19    1
    37    25    26    1
    38    29    36    1
