@<TRIPOS>MOLECULE
*****
 39 43 0 0 0
SMALL
GASTEIGER

@<TRIPOS>ATOM
      1 C          64.0621   84.5722   13.9373 C.ar    1  UNL1        0.0951
      2 C          63.8755   83.1465   14.3644 C.ar    1  UNL1        0.1454
      3 F          64.4385   82.6757   15.6727 F       1  UNL1       -0.2040
      4 C          63.1261   82.1915   13.4833 C.ar    1  UNL1        0.0312
      5 C          62.5631   82.6622   12.1751 C.ar    1  UNL1        0.0204
      6 C          62.7496   84.0880   11.7480 C.ar    1  UNL1        0.0924
      7 C          63.4991   85.0430   12.6291 C.ar    1  UNL1        0.1598
      8 F          63.6856   86.4687   12.2019 F       1  UNL1       -0.2026
      9 C          64.8115   85.5272   14.8184 C.2     1  UNL1        0.2036
     10 O          66.3109   85.4991   14.8501 O.2     1  UNL1       -0.2863
     11 C          64.5595   90.3855   14.5968 C.2     1  UNL1        0.0322
     12 C          63.6777   90.9718   15.6592 C.2     1  UNL1        0.2321
     13 N          62.9881   90.0726   16.6420 N.2     1  UNL1       -0.0311
     14 C          63.1804   88.5871   16.5624 C.2     1  UNL1        0.3721
     15 N          62.6348   87.4588   17.3867 N.2     1  UNL1       -0.0307
     16 C          63.1794   86.1752   16.8337 C.2     1  UNL1        0.2390
     17 C          64.0616   86.5102   15.6677 C.2     1  UNL1        0.0896
     18 C          64.0622   88.0008   15.5000 C.2     1  UNL1        0.0774
     19 C          64.7517   88.9000   14.5172 C.3     1  UNL1        0.0647
     20 C          66.6282   93.0832   11.6483 C.ar    1  UNL1        0.3201
     21 N          67.3314   92.6679   12.9064 N.ar    1  UNL1       -0.1927
     22 C          66.6419   91.7687   13.8893 C.ar    1  UNL1        0.1050
     23 C          65.2491   91.2848   13.6140 C.ar    1  UNL1        0.0386
     24 C          64.5458   91.7000   12.3558 C.ar    1  UNL1        0.1050
     25 N          65.2353   92.5992   11.3730 N.ar    1  UNL1       -0.1927
     26 C          67.8152   93.4286    9.3633 C.3     1  UNL1        0.2559
     27 O          67.3177   93.9824   10.6654 O.3     1  UNL1       -0.4426
     28 N          62.1867   84.5587   10.4398 N.pl3   1  UNL1       -0.2127
     29 H          62.0418   83.9175    9.7069 H       1  UNL1        0.1738
     30 S          61.8444   86.0066   10.2481 S.O2    1  UNL1        0.0758
     31 O          62.6326   86.0241    8.9721 O.2     1  UNL1       -0.1499
     32 O          61.0562   85.9891   11.5243 O.2     1  UNL1       -0.1499
     33 C          61.5021   87.4544   10.0566 C.ar    1  UNL1        0.1524
     34 C          62.3489   88.5159   10.6939 C.ar    1  UNL1        0.0225
     35 C          62.0066   89.9637   10.5024 C.ar    1  UNL1        0.0015
     36 C          60.8175   90.3500    9.6736 C.ar    1  UNL1        0.0024
     37 C          59.9708   89.2885    9.0362 C.ar    1  UNL1        0.0310
     38 C          60.3131   87.8407    9.2278 C.ar    1  UNL1        0.1589
     39 F          59.4664   86.7792    8.5904 F       1  UNL1       -0.2027
@<TRIPOS>BOND
     1    26    27    1
     2    27    20    1
     3    20    21   ar
     4    21    22   ar
     5    22    23   ar
     6    23    11    1
     7    11    12    2
     8    12    13    1
     9    13    14    2
    10    14    15    1
    11    15    16    2
    12    16    17    1
    13    17     9    1
    14     9    10    2
    15     9     1    1
    16     1     2   ar
    17     2     3    1
    18     2     4   ar
    19     4     5   ar
    20     5     6   ar
    21     6    28    1
    22    28    30    1
    23    30    31    2
    24    30    32    2
    25    30    33    1
    26    33    34   ar
    27    34    35   ar
    28    35    36   ar
    29    36    37   ar
    30    37    38   ar
    31    38    39    1
    32     6     7   ar
    33     7     8    1
    34    17    18    2
    35    18    19    1
    36    23    24   ar
    37    24    25   ar
    38    25    20   ar
    39    19    11    1
    40    18    14    1
    41     7     1   ar
    42    38    33   ar
    43    28    29    1
@<TRIPOS>MOLECULE
*****
 39 43 0 0 0
SMALL
GASTEIGER

@<TRIPOS>ATOM
      1 C          64.5897   91.2321   12.5194 C.ar    1  UNL1        0.0951
      2 C          65.1170   92.1533   11.4596 C.ar    1  UNL1        0.1454
      3 F          66.3868   92.9168   11.6936 F       1  UNL1       -0.2040
      4 C          64.3746   92.3112   10.1658 C.ar    1  UNL1        0.0312
      5 C          63.1048   91.5477    9.9318 C.ar    1  UNL1        0.0204
      6 C          62.5774   90.6265   10.9916 C.ar    1  UNL1        0.0924
      7 C          63.3199   90.4686   12.2854 C.ar    1  UNL1        0.1598
      8 F          62.7925   89.5474   13.3451 F       1  UNL1       -0.2026
      9 C          65.3321   91.0742   13.8132 C.2     1  UNL1        0.2036
     10 O          66.8197   91.2624   13.8519 O.2     1  UNL1       -0.2863
     11 C          63.6811   86.7991   15.4605 C.2     1  UNL1        0.0322
     12 C          62.9811   86.9155   16.7820 C.2     1  UNL1        0.2321
     13 N          62.8536   88.2535   17.4479 N.2     1  UNL1       -0.0311
     14 C          63.4262   89.4751   16.7923 C.2     1  UNL1        0.3721
     15 N          63.4542   90.9166   17.2064 N.2     1  UNL1       -0.0307
     16 C          64.1716   91.6911   16.1408 C.2     1  UNL1        0.2390
     17 C          64.5869   90.7283   15.0681 C.2     1  UNL1        0.0896
     18 C          64.1262   89.3588   15.4708 C.2     1  UNL1        0.0774
     19 C          64.2537   88.0208   14.8049 C.3     1  UNL1        0.0647
     20 C          64.0636   82.7850   13.4627 C.ar    1  UNL1        0.3201
     21 N          63.9145   84.0251   12.6319 N.ar    1  UNL1       -0.1927
     22 C          63.7871   85.3631   13.2979 C.ar    1  UNL1        0.1050
     23 C          63.8086   85.4611   14.7945 C.ar    1  UNL1        0.0386
     24 C          63.9576   84.2211   15.6252 C.ar    1  UNL1        0.1050
     25 N          64.0851   82.8831   14.9593 N.ar    1  UNL1       -0.1927
     26 C          62.9631   80.6425   12.4888 C.3     1  UNL1        0.2559
     27 O          64.1911   81.4470   12.7968 O.3     1  UNL1       -0.4426
     28 N          61.3077   89.8630   10.7576 N.pl3   1  UNL1       -0.2127
     29 H          60.4676   90.1661   11.1720 H       1  UNL1        0.1738
     30 S          61.3178   88.6379    9.8921 S.O2    1  UNL1        0.0758
     31 O          61.7569   87.8128   11.0652 O.2     1  UNL1       -0.1499
     32 O          60.8788   89.4630    8.7189 O.2     1  UNL1       -0.1499
     33 C          61.3280   87.4128    9.0266 C.ar    1  UNL1        0.1524
     34 C          62.5754   86.5881    8.9088 C.ar    1  UNL1        0.0225
     35 C          62.5855   85.3630    8.0433 C.ar    1  UNL1        0.0015
     36 C          61.3483   84.9626    7.2957 C.ar    1  UNL1        0.0024
     37 C          60.1009   85.7873    7.4135 C.ar    1  UNL1        0.0310
     38 C          60.0908   87.0124    8.2790 C.ar    1  UNL1        0.1589
     39 F          58.8434   87.8370    8.3968 F       1  UNL1       -0.2027
@<TRIPOS>BOND
     1    26    27    1
     2    27    20    1
     3    20    21   ar
     4    21    22   ar
     5    22    23   ar
     6    23    11    1
     7    11    12    2
     8    12    13    1
     9    13    14    2
    10    14    15    1
    11    15    16    2
    12    16    17    1
    13    17     9    1
    14     9    10    2
    15     9     1    1
    16     1     2   ar
    17     2     3    1
    18     2     4   ar
    19     4     5   ar
    20     5     6   ar
    21     6    28    1
    22    28    30    1
    23    30    31    2
    24    30    32    2
    25    30    33    1
    26    33    34   ar
    27    34    35   ar
    28    35    36   ar
    29    36    37   ar
    30    37    38   ar
    31    38    39    1
    32     6     7   ar
    33     7     8    1
    34    17    18    2
    35    18    19    1
    36    23    24   ar
    37    24    25   ar
    38    25    20   ar
    39    19    11    1
    40    18    14    1
    41     7     1   ar
    42    38    33   ar
    43    28    29    1
@<TRIPOS>MOLECULE
*****
 39 43 0 0 0
SMALL
GASTEIGER

@<TRIPOS>ATOM
      1 C          63.1390   84.5369   10.3041 C.ar    1  UNL1        0.0951
      2 C          63.8659   83.3415    9.7633 C.ar    1  UNL1        0.1454
      3 F          64.2795   83.3040    8.3219 F       1  UNL1       -0.2040
      4 C          64.1792   82.1835   10.6638 C.ar    1  UNL1        0.0312
      5 C          63.7656   82.2210   12.1052 C.ar    1  UNL1        0.0204
      6 C          63.0387   83.4164   12.6460 C.ar    1  UNL1        0.0924
      7 C          62.7255   84.5744   11.7455 C.ar    1  UNL1        0.1598
      8 F          61.9987   85.7698   12.2864 F       1  UNL1       -0.2026
      9 C          62.8258   85.6949    9.4036 C.2     1  UNL1        0.2036
     10 O          63.7135   85.9958    8.2325 O.2     1  UNL1       -0.2863
     11 C          62.4589   90.1293   11.3829 C.2     1  UNL1        0.0322
     12 C          61.0422   90.6155   11.4635 C.2     1  UNL1        0.2321
     13 N          59.9234   89.7524   10.9603 N.2     1  UNL1       -0.0311
     14 C          60.2212   88.4032   10.3765 C.2     1  UNL1        0.3721
     15 N          59.3325   87.3386    9.8046 N.2     1  UNL1       -0.0307
     16 C          60.2001   86.1945    9.3705 C.2     1  UNL1        0.2390
     17 C          61.6249   86.5520    9.6742 C.2     1  UNL1        0.0896
     18 C          61.6379   87.9170   10.2959 C.2     1  UNL1        0.0774
     19 C          62.7568   88.7801   10.7991 C.3     1  UNL1        0.0647
     20 C          65.8157   92.7186   12.8924 C.ar    1  UNL1        0.3201
     21 N          65.4698   92.7144   11.4328 N.ar    1  UNL1       -0.1927
     22 C          64.3509   91.8513   10.9297 C.ar    1  UNL1        0.1050
     23 C          63.5778   90.9924   11.8860 C.ar    1  UNL1        0.0386
     24 C          63.9237   90.9966   13.3456 C.ar    1  UNL1        0.1050
     25 N          65.0425   91.8596   13.8488 N.ar    1  UNL1       -0.1927
     26 C          67.3368   93.5217   14.8394 C.3     1  UNL1        0.2559
     27 O          66.9345   93.5816   13.3956 O.3     1  UNL1       -0.4426
     28 N          62.6252   83.4539   14.0874 N.pl3   1  UNL1       -0.2127
     29 H          62.2410   82.6522   14.5103 H       1  UNL1        0.1738
     30 S          62.7970   84.7130   14.8844 S.O2    1  UNL1        0.0758
     31 O          64.2820   84.6339   14.6894 O.2     1  UNL1       -0.1499
     32 O          61.3118   84.7922   15.0794 O.2     1  UNL1       -0.1499
     33 C          62.9687   85.9721   15.6814 C.ar    1  UNL1        0.1524
     34 C          62.5256   86.0194   17.1136 C.ar    1  UNL1        0.0225
     35 C          62.6973   87.2785   17.9106 C.ar    1  UNL1        0.0015
     36 C          63.3121   88.4903   17.2754 C.ar    1  UNL1        0.0024
     37 C          63.7551   88.4430   15.8431 C.ar    1  UNL1        0.0310
     38 C          63.5834   87.1839   15.0461 C.ar    1  UNL1        0.1589
     39 F          64.0265   87.1367   13.6138 F       1  UNL1       -0.2027
@<TRIPOS>BOND
     1    26    27    1
     2    27    20    1
     3    20    21   ar
     4    21    22   ar
     5    22    23   ar
     6    23    11    1
     7    11    12    2
     8    12    13    1
     9    13    14    2
    10    14    15    1
    11    15    16    2
    12    16    17    1
    13    17     9    1
    14     9    10    2
    15     9     1    1
    16     1     2   ar
    17     2     3    1
    18     2     4   ar
    19     4     5   ar
    20     5     6   ar
    21     6    28    1
    22    28    30    1
    23    30    31    2
    24    30    32    2
    25    30    33    1
    26    33    34   ar
    27    34    35   ar
    28    35    36   ar
    29    36    37   ar
    30    37    38   ar
    31    38    39    1
    32     6     7   ar
    33     7     8    1
    34    17    18    2
    35    18    19    1
    36    23    24   ar
    37    24    25   ar
    38    25    20   ar
    39    19    11    1
    40    18    14    1
    41     7     1   ar
    42    38    33   ar
    43    28    29    1
@<TRIPOS>MOLECULE
*****
 39 43 0 0 0
SMALL
GASTEIGER

@<TRIPOS>ATOM
      1 C          63.9157   89.8025   13.9855 C.ar    1  UNL1        0.0951
      2 C          62.6868   90.1320   13.1909 C.ar    1  UNL1        0.1454
      3 F          61.4198   89.3610   13.4149 F       1  UNL1       -0.2040
      4 C          62.7250   91.2326   12.1724 C.ar    1  UNL1        0.0312
      5 C          63.9921   92.0036   11.9485 C.ar    1  UNL1        0.0204
      6 C          65.2209   91.6741   12.7431 C.ar    1  UNL1        0.0924
      7 C          65.1827   90.5735   13.7616 C.ar    1  UNL1        0.1598
      8 F          66.4116   90.2440   14.5561 F       1  UNL1       -0.2026
      9 C          63.8775   88.7019   15.0040 C.2     1  UNL1        0.2036
     10 O          63.6846   89.0293   16.4550 O.2     1  UNL1       -0.2863
     11 C          62.1928   86.3633   11.0785 C.2     1  UNL1        0.0322
     12 C          62.5932   84.9182   11.0454 C.2     1  UNL1        0.2321
     13 N          63.4270   84.3454   12.1529 N.2     1  UNL1       -0.0311
     14 C          63.8605   85.2178   13.2936 C.2     1  UNL1        0.3721
     15 N          64.6801   84.9356   14.5178 N.2     1  UNL1       -0.0307
     16 C          64.7862   86.2065   15.3075 C.2     1  UNL1        0.2390
     17 C          64.0322   87.2740   14.5714 C.2     1  UNL1        0.0896
     18 C          63.4601   86.6629   13.3267 C.2     1  UNL1        0.0774
     19 C          62.6263   87.2357   12.2192 C.3     1  UNL1        0.0647
     20 C          59.6913   88.0819    7.7560 C.ar    1  UNL1        0.3201
     21 N          60.0510   86.6257    7.7477 N.ar    1  UNL1       -0.1927
     22 C          60.8849   86.0529    8.8553 C.ar    1  UNL1        0.1050
     23 C          61.3590   86.9362    9.9710 C.ar    1  UNL1        0.0386
     24 C          60.9993   88.3924    9.9792 C.ar    1  UNL1        0.1050
     25 N          60.1655   88.9653    8.8718 N.ar    1  UNL1       -0.1927
     26 C          59.2402   89.9624    6.0210 C.3     1  UNL1        0.2559
     27 O          58.8575   88.6548    6.6485 O.3     1  UNL1       -0.4426
     28 N          66.4879   92.4451   12.5191 N.pl3   1  UNL1       -0.2127
     29 H          67.2950   92.2276   13.0393 H       1  UNL1        0.1738
     30 S          66.5252   93.5476   11.5026 S.O2    1  UNL1        0.0758
     31 O          66.5386   94.5640   12.6055 O.2     1  UNL1       -0.1499
     32 O          66.5118   92.5310   10.3996 O.2     1  UNL1       -0.1499
     33 C          66.5625   94.6499   10.4861 C.ar    1  UNL1        0.1524
     34 C          65.4789   95.6869   10.4642 C.ar    1  UNL1        0.0225
     35 C          65.5162   96.7893    9.4476 C.ar    1  UNL1        0.0015
     36 C          66.6371   96.8547    8.4530 C.ar    1  UNL1        0.0024
     37 C          67.7207   95.8178    8.4749 C.ar    1  UNL1        0.0310
     38 C          67.6834   94.7154    9.4915 C.ar    1  UNL1        0.1589
     39 F          68.7670   93.6785    9.5133 F       1  UNL1       -0.2027
@<TRIPOS>BOND
     1    26    27    1
     2    27    20    1
     3    20    21   ar
     4    21    22   ar
     5    22    23   ar
     6    23    11    1
     7    11    12    2
     8    12    13    1
     9    13    14    2
    10    14    15    1
    11    15    16    2
    12    16    17    1
    13    17     9    1
    14     9    10    2
    15     9     1    1
    16     1     2   ar
    17     2     3    1
    18     2     4   ar
    19     4     5   ar
    20     5     6   ar
    21     6    28    1
    22    28    30    1
    23    30    31    2
    24    30    32    2
    25    30    33    1
    26    33    34   ar
    27    34    35   ar
    28    35    36   ar
    29    36    37   ar
    30    37    38   ar
    31    38    39    1
    32     6     7   ar
    33     7     8    1
    34    17    18    2
    35    18    19    1
    36    23    24   ar
    37    24    25   ar
    38    25    20   ar
    39    19    11    1
    40    18    14    1
    41     7     1   ar
    42    38    33   ar
    43    28    29    1
@<TRIPOS>MOLECULE
*****
 39 43 0 0 0
SMALL
GASTEIGER

@<TRIPOS>ATOM
      1 C          63.8916   87.0730   15.6896 C.ar    1  UNL1        0.0951
      2 C          63.0807   87.6529   16.8103 C.ar    1  UNL1        0.1454
      3 F          63.2334   89.0996   17.1760 F       1  UNL1       -0.2040
      4 C          62.1171   86.7861   17.5654 C.ar    1  UNL1        0.0312
      5 C          61.9643   85.3394   17.1997 C.ar    1  UNL1        0.0204
      6 C          62.7752   84.7595   16.0790 C.ar    1  UNL1        0.0924
      7 C          63.7388   85.6263   15.3239 C.ar    1  UNL1        0.1598
      8 F          64.5497   85.0463   14.2031 F       1  UNL1       -0.2026
      9 C          64.8552   87.9398   14.9345 C.2     1  UNL1        0.2036
     10 O          66.2827   87.5088   14.7719 O.2     1  UNL1       -0.2863
     11 C          62.3982   88.8704   10.8341 C.2     1  UNL1        0.0322
     12 C          62.1422   90.3340   10.6283 C.2     1  UNL1        0.2321
     13 N          62.6320   91.3301   11.6371 N.2     1  UNL1       -0.0311
     14 C          63.3777   90.8628   12.8517 C.2     1  UNL1        0.3721
     15 N          63.9771   91.6055   14.0090 N.2     1  UNL1       -0.0307
     16 C          64.6035   90.6009   14.9301 C.2     1  UNL1        0.2390
     17 C          64.3913   89.2374   14.3420 C.2     1  UNL1        0.0896
     18 C          63.6338   89.3992   13.0576 C.2     1  UNL1        0.0774
     19 C          63.1440   88.4030   12.0488 C.3     1  UNL1        0.0647
     20 C          60.9289   85.8817    7.8077 C.ar    1  UNL1        0.3201
     21 N          62.2372   85.6596    8.5071 N.ar    1  UNL1       -0.1927
     22 C          62.7269   86.6558    9.5159 C.ar    1  UNL1        0.1050
     23 C          61.9085   87.8742    9.8253 C.ar    1  UNL1        0.0386
     24 C          60.6002   88.0963    9.1259 C.ar    1  UNL1        0.1050
     25 N          60.1104   87.1001    8.1171 N.ar    1  UNL1       -0.1927
     26 C          61.4146   84.1927    5.8943 C.3     1  UNL1        0.2559
     27 O          60.4391   84.8855    6.7989 O.3     1  UNL1       -0.4426
     28 N          62.6225   83.3128   15.7133 N.pl3   1  UNL1       -0.2127
     29 H          62.3473   82.6589   16.3959 H       1  UNL1        0.1738
     30 S          62.8890   82.8625   14.3075 S.O2    1  UNL1        0.0758
     31 O          64.0247   82.0127   14.7950 O.2     1  UNL1       -0.1499
     32 O          61.7531   83.7123   13.8199 O.2     1  UNL1       -0.1499
     33 C          63.1554   82.4122   12.9017 C.ar    1  UNL1        0.1524
     34 C          63.9158   83.2995   11.9613 C.ar    1  UNL1        0.0225
     35 C          64.1823   82.8492   10.5555 C.ar    1  UNL1        0.0015
     36 C          63.6883   81.5115   10.0901 C.ar    1  UNL1        0.0024
     37 C          62.9278   80.6242   11.0305 C.ar    1  UNL1        0.0310
     38 C          62.6614   81.0745   12.4363 C.ar    1  UNL1        0.1589
     39 F          61.9010   80.1871   13.3766 F       1  UNL1       -0.2027
@<TRIPOS>BOND
     1    26    27    1
     2    27    20    1
     3    20    21   ar
     4    21    22   ar
     5    22    23   ar
     6    23    11    1
     7    11    12    2
     8    12    13    1
     9    13    14    2
    10    14    15    1
    11    15    16    2
    12    16    17    1
    13    17     9    1
    14     9    10    2
    15     9     1    1
    16     1     2   ar
    17     2     3    1
    18     2     4   ar
    19     4     5   ar
    20     5     6   ar
    21     6    28    1
    22    28    30    1
    23    30    31    2
    24    30    32    2
    25    30    33    1
    26    33    34   ar
    27    34    35   ar
    28    35    36   ar
    29    36    37   ar
    30    37    38   ar
    31    38    39    1
    32     6     7   ar
    33     7     8    1
    34    17    18    2
    35    18    19    1
    36    23    24   ar
    37    24    25   ar
    38    25    20   ar
    39    19    11    1
    40    18    14    1
    41     7     1   ar
    42    38    33   ar
    43    28    29    1
