@<TRIPOS>MOLECULE
*****
 30 31 0 0 0
SMALL
GASTEIGER

@<TRIPOS>ATOM
      1 C          65.3512   90.4443   14.6586 C.2     1  UNL1        0.0786
      2 C          64.0438   89.9899   14.0803 C.2     1  UNL1        0.1369
      3 O          62.9646   90.9900   13.7888 O.2     1  UNL1       -0.5054
      4 H          63.1071   91.8986   13.9679 H       1  UNL1        0.2922
      5 C          65.5793   91.8989   14.9453 C.2     1  UNL1        0.1988
      6 O          65.2021   92.4682   16.2809 O.2     1  UNL1       -0.2865
      7 C          65.5929   92.8272   12.5188 C.2     1  UNL1        0.0034
      8 C          66.1845   92.7841   13.8965 C.2     1  UNL1        0.0421
      9 C          67.5509   93.9933    9.2696 C.ar    1  UNL1        0.1721
     10 C          66.9456   93.1081   10.3184 C.ar    1  UNL1        0.0400
     11 C          66.1982   93.7125   11.4699 C.ar    1  UNL1        0.0033
     12 C          66.0560   95.2022   11.5727 C.ar    1  UNL1        0.0033
     13 C          66.6613   96.0874   10.5239 C.ar    1  UNL1        0.0398
     14 C          67.4087   95.4830    9.3724 C.ar    1  UNL1        0.1677
     15 O          68.0140   96.3683    8.3236 O.3     1  UNL1       -0.5029
     16 H          67.9252   97.2989    8.3877 H       1  UNL1        0.2923
     17 C          69.0166   92.0836    8.2925 C.3     1  UNL1        0.2526
     18 O          68.2983   93.3888    8.1181 O.3     1  UNL1       -0.4684
     19 C          63.8157   88.5353   13.7936 C.2     1  UNL1        0.0367
     20 C          64.3324   87.4940   14.7416 C.2     1  UNL1        0.0032
     21 C          64.1043   86.0394   14.4549 C.ar    1  UNL1        0.0033
     22 C          64.3691   85.0150   15.5180 C.ar    1  UNL1        0.0033
     23 C          64.1410   83.5604   15.2313 C.ar    1  UNL1        0.0398
     24 C          63.6482   83.1303   13.8815 C.ar    1  UNL1        0.1677
     25 O          63.4201   81.6757   13.5948 O.3     1  UNL1       -0.5029
     26 C          63.3834   84.1548   12.8184 C.ar    1  UNL1        0.1721
     27 C          63.6115   85.6094   13.1051 C.ar    1  UNL1        0.0400
     28 H          63.5855   81.0358   14.2589 H       1  UNL1        0.2923
     29 O          62.8905   83.7247   11.4685 O.3     1  UNL1       -0.4684
     30 C          63.8638   83.2475   10.4317 C.3     1  UNL1        0.2526
@<TRIPOS>BOND
     1    17    18    1
     2    18     9    1
     3     9    10   ar
     4    10    11   ar
     5    11     7    1
     6     7     8    2
     7     8     5    1
     8     5     6    2
     9     5     1    1
    10     1     2    2
    11     2     3    1
    12     2    19    1
    13    19    20    2
    14    20    21    1
    15    21    22   ar
    16    22    23   ar
    17    23    24   ar
    18    24    25    1
    19    24    26   ar
    20    26    29    1
    21    29    30    1
    22    26    27   ar
    23    11    12   ar
    24    12    13   ar
    25    13    14   ar
    26    14    15    1
    27    14     9   ar
    28    27    21   ar
    29     3     4    1
    30    25    28    1
    31    15    16    1
@<TRIPOS>MOLECULE
*****
 30 31 0 0 0
SMALL
GASTEIGER

@<TRIPOS>ATOM
      1 C          61.8773   87.8477    9.5422 C.2     1  UNL1        0.0786
      2 C          61.7026   88.8798   10.6167 C.2     1  UNL1        0.1369
      3 O          60.6519   88.6944   11.6710 O.2     1  UNL1       -0.5054
      4 H          60.1047   87.9339   11.6584 H       1  UNL1        0.2922
      5 C          61.0013   86.6303    9.5221 C.2     1  UNL1        0.1988
      6 O          59.8520   86.5491    8.5615 O.2     1  UNL1       -0.2865
      7 C          62.6714   84.9717   10.6218 C.2     1  UNL1        0.0034
      8 C          61.2744   85.4942   10.4626 C.2     1  UNL1        0.0421
      9 C          63.2826   82.9481   13.9807 C.ar    1  UNL1        0.1721
     10 C          63.0095   84.0842   13.0402 C.ar    1  UNL1        0.0400
     11 C          62.9445   83.8354   11.5624 C.ar    1  UNL1        0.0033
     12 C          63.1527   82.4506   11.0251 C.ar    1  UNL1        0.0033
     13 C          63.4258   81.3145   11.9656 C.ar    1  UNL1        0.0398
     14 C          63.4907   81.5632   13.4434 C.ar    1  UNL1        0.1677
     15 O          63.7639   80.4270   14.3839 O.3     1  UNL1       -0.5029
     16 H          63.8939   79.5619   14.0483 H       1  UNL1        0.2923
     17 C          62.6377   84.3773   16.0522 C.3     1  UNL1        0.2526
     18 O          63.3475   83.1969   15.4585 O.3     1  UNL1       -0.4684
     19 C          62.5787   90.0972   10.6367 C.2     1  UNL1        0.0367
     20 C          63.5039   90.3365   11.7928 C.2     1  UNL1        0.0032
     21 C          64.3800   91.5539   11.8129 C.ar    1  UNL1        0.0033
     22 C          64.5742   92.3588   10.5622 C.ar    1  UNL1        0.0033
     23 C          65.4503   93.5762   10.5822 C.ar    1  UNL1        0.0398
     24 C          66.1321   93.9888   11.8530 C.ar    1  UNL1        0.1677
     25 O          67.0081   95.2062   11.8731 O.3     1  UNL1       -0.5029
     26 C          65.9378   93.1838   13.1037 C.ar    1  UNL1        0.1721
     27 C          65.0618   91.9664   13.0837 C.ar    1  UNL1        0.0400
     28 H          67.1295   95.7090   11.0918 H       1  UNL1        0.2923
     29 O          66.6196   93.5964   14.3746 O.3     1  UNL1       -0.4684
     30 C          66.5139   92.7332   15.5968 C.3     1  UNL1        0.2526
@<TRIPOS>BOND
     1    17    18    1
     2    18     9    1
     3     9    10   ar
     4    10    11   ar
     5    11     7    1
     6     7     8    2
     7     8     5    1
     8     5     6    2
     9     5     1    1
    10     1     2    2
    11     2     3    1
    12     2    19    1
    13    19    20    2
    14    20    21    1
    15    21    22   ar
    16    22    23   ar
    17    23    24   ar
    18    24    25    1
    19    24    26   ar
    20    26    29    1
    21    29    30    1
    22    26    27   ar
    23    11    12   ar
    24    12    13   ar
    25    13    14   ar
    26    14    15    1
    27    14     9   ar
    28    27    21   ar
    29     3     4    1
    30    25    28    1
    31    15    16    1
@<TRIPOS>MOLECULE
*****
 30 31 0 0 0
SMALL
GASTEIGER

@<TRIPOS>ATOM
      1 C          62.3330   88.3875   10.0458 C.2     1  UNL1        0.0786
      2 C          62.0358   89.1897   11.2780 C.2     1  UNL1        0.1369
      3 O          60.7993   88.9053   12.0781 O.2     1  UNL1       -0.5054
      4 H          60.2125   88.2265   11.8081 H       1  UNL1        0.2922
      5 C          61.3935   87.3009    9.6137 C.2     1  UNL1        0.1988
      6 O          60.4178   87.5512    8.5022 O.2     1  UNL1       -0.2865
      7 C          62.7228   85.4351   10.8391 C.2     1  UNL1        0.0034
      8 C          61.4298   85.9641   10.2931 C.2     1  UNL1        0.0421
      9 C          62.6959   82.6765   13.6921 C.ar    1  UNL1        0.1721
     10 C          62.6597   84.0133   13.0128 C.ar    1  UNL1        0.0400
     11 C          62.7590   84.0982   11.5185 C.ar    1  UNL1        0.0033
     12 C          62.8947   82.8462   10.7035 C.ar    1  UNL1        0.0033
     13 C          62.9309   81.5094   11.3829 C.ar    1  UNL1        0.0398
     14 C          62.8315   81.4246   12.8772 C.ar    1  UNL1        0.1677
     15 O          62.8677   80.0877   13.5566 O.3     1  UNL1       -0.5029
     16 H          62.9524   79.3056   13.0475 H       1  UNL1        0.2923
     17 C          62.5383   83.8462   16.0066 C.3     1  UNL1        0.2526
     18 O          62.5965   82.5917   15.1864 O.3     1  UNL1       -0.4684
     19 C          62.9753   90.2763   11.7102 C.2     1  UNL1        0.0367
     20 C          63.8385   90.0836   12.9216 C.2     1  UNL1        0.0032
     21 C          64.7780   91.1702   13.3537 C.ar    1  UNL1        0.0033
     22 C          65.1486   91.3098   14.8004 C.ar    1  UNL1        0.0033
     23 C          66.0880   92.3964   15.2325 C.ar    1  UNL1        0.0398
     24 C          66.6569   93.3434   14.2179 C.ar    1  UNL1        0.1677
     25 O          67.5963   94.4301   14.6500 O.3     1  UNL1       -0.5029
     26 C          66.2863   93.2038   12.7711 C.ar    1  UNL1        0.1721
     27 C          65.3468   92.1172   12.3390 C.ar    1  UNL1        0.0400
     28 H          67.8278   94.5173   15.5537 H       1  UNL1        0.2923
     29 O          66.8551   94.1509   11.7564 O.3     1  UNL1       -0.4684
     30 C          66.1047   95.3969   11.3900 C.3     1  UNL1        0.2526
@<TRIPOS>BOND
     1    17    18    1
     2    18     9    1
     3     9    10   ar
     4    10    11   ar
     5    11     7    1
     6     7     8    2
     7     8     5    1
     8     5     6    2
     9     5     1    1
    10     1     2    2
    11     2     3    1
    12     2    19    1
    13    19    20    2
    14    20    21    1
    15    21    22   ar
    16    22    23   ar
    17    23    24   ar
    18    24    25    1
    19    24    26   ar
    20    26    29    1
    21    29    30    1
    22    26    27   ar
    23    11    12   ar
    24    12    13   ar
    25    13    14   ar
    26    14    15    1
    27    14     9   ar
    28    27    21   ar
    29     3     4    1
    30    25    28    1
    31    15    16    1
@<TRIPOS>MOLECULE
*****
 30 31 0 0 0
SMALL
GASTEIGER

@<TRIPOS>ATOM
      1 C          62.4169   88.0439   10.4104 C.2     1  UNL1        0.0786
      2 C          62.0353   89.0339   11.4708 C.2     1  UNL1        0.1369
      3 O          60.7008   88.9307   12.1479 O.2     1  UNL1       -0.5054
      4 H          60.1055   88.2479   11.9084 H       1  UNL1        0.2922
      5 C          61.4639   86.9508   10.0270 C.2     1  UNL1        0.1988
      6 O          60.4595   87.1797    8.9367 O.2     1  UNL1       -0.2865
      7 C          62.6508   85.3194   11.6641 C.2     1  UNL1        0.0034
      8 C          61.5153   85.6289   10.7340 C.2     1  UNL1        0.0421
      9 C          62.7971   81.4025   12.2857 C.ar    1  UNL1        0.1721
     10 C          62.7457   82.7245   11.5788 C.ar    1  UNL1        0.0400
     11 C          62.7022   83.9974   12.3711 C.ar    1  UNL1        0.0033
     12 C          62.7100   83.9484   13.8702 C.ar    1  UNL1        0.0033
     13 C          62.7614   82.6265   14.5771 C.ar    1  UNL1        0.0398
     14 C          62.8050   81.3535   13.7848 C.ar    1  UNL1        0.1677
     15 O          62.8564   80.0315   14.4918 O.3     1  UNL1       -0.5029
     16 H          62.8612   80.0009   15.4283 H       1  UNL1        0.2923
     17 C          63.0662   80.1760   10.0112 C.3     1  UNL1        0.2526
     18 O          62.8407   80.1296   11.4934 O.3     1  UNL1       -0.4684
     19 C          62.9883   90.1270   11.8541 C.2     1  UNL1        0.0367
     20 C          63.8347   89.9868   13.0845 C.2     1  UNL1        0.0032
     21 C          64.7877   91.0799   13.4678 C.ar    1  UNL1        0.0033
     22 C          65.3484   91.1327   14.8580 C.ar    1  UNL1        0.0033
     23 C          66.3014   92.2258   15.2414 C.ar    1  UNL1        0.0398
     24 C          66.6936   93.2662   14.2345 C.ar    1  UNL1        0.1677
     25 O          67.6466   94.3593   14.6178 O.3     1  UNL1       -0.5029
     26 C          66.1328   93.2134   12.8443 C.ar    1  UNL1        0.1721
     27 C          65.1799   92.1203   12.4610 C.ar    1  UNL1        0.0400
     28 H          67.9969   94.3922   15.4863 H       1  UNL1        0.2923
     29 O          66.5250   94.2538   11.8373 O.3     1  UNL1       -0.4684
     30 C          66.8334   93.8523   10.4254 C.3     1  UNL1        0.2526
@<TRIPOS>BOND
     1    17    18    1
     2    18     9    1
     3     9    10   ar
     4    10    11   ar
     5    11     7    1
     6     7     8    2
     7     8     5    1
     8     5     6    2
     9     5     1    1
    10     1     2    2
    11     2     3    1
    12     2    19    1
    13    19    20    2
    14    20    21    1
    15    21    22   ar
    16    22    23   ar
    17    23    24   ar
    18    24    25    1
    19    24    26   ar
    20    26    29    1
    21    29    30    1
    22    26    27   ar
    23    11    12   ar
    24    12    13   ar
    25    13    14   ar
    26    14    15    1
    27    14     9   ar
    28    27    21   ar
    29     3     4    1
    30    25    28    1
    31    15    16    1
@<TRIPOS>MOLECULE
*****
 30 31 0 0 0
SMALL
GASTEIGER

@<TRIPOS>ATOM
      1 C          62.2591   88.4044   10.5088 C.2     1  UNL1        0.0786
      2 C          61.1516   87.5890   11.1078 C.2     1  UNL1        0.1369
      3 O          59.9200   88.2666   11.6311 O.2     1  UNL1       -0.5054
      4 H          59.8424   89.1992   11.5838 H       1  UNL1        0.2922
      5 C          62.1348   89.8973   10.4330 C.2     1  UNL1        0.1988
      6 O          61.0007   90.5178    9.6722 O.2     1  UNL1       -0.2865
      7 C          63.6547   90.3999   12.4793 C.2     1  UNL1        0.0034
      8 C          63.1446   90.7696   11.1180 C.2     1  UNL1        0.0421
      9 C          66.2543   93.3269   13.1308 C.ar    1  UNL1        0.1721
     10 C          65.2445   92.4545   12.4459 C.ar    1  UNL1        0.0400
     11 C          64.6646   91.2723   13.1643 C.ar    1  UNL1        0.0033
     12 C          65.0944   90.9625   14.5675 C.ar    1  UNL1        0.0033
     13 C          66.1042   91.8349   15.2524 C.ar    1  UNL1        0.0398
     14 C          66.6842   93.0171   14.5341 C.ar    1  UNL1        0.1677
     15 O          67.6940   93.8896   15.2191 O.3     1  UNL1       -0.5029
     16 H          67.9626   93.6960   16.0957 H       1  UNL1        0.2923
     17 C          66.1577   95.0480   11.1870 C.3     1  UNL1        0.2526
     18 O          66.8343   94.5092   12.4125 O.3     1  UNL1       -0.4684
     19 C          61.2759   86.0961   11.1836 C.2     1  UNL1        0.0367
     20 C          62.5726   85.4719   11.6065 C.2     1  UNL1        0.0032
     21 C          62.6968   83.9790   11.6823 C.ar    1  UNL1        0.0033
     22 C          63.3548   83.2236   10.5659 C.ar    1  UNL1        0.0033
     23 C          63.4790   81.7306   10.6416 C.ar    1  UNL1        0.0398
     24 C          62.9454   80.9932   11.8338 C.ar    1  UNL1        0.1677
     25 O          63.0696   79.5002   11.9095 O.3     1  UNL1       -0.5029
     26 C          62.2874   81.7486   12.9502 C.ar    1  UNL1        0.1721
     27 C          62.1632   83.2415   12.8744 C.ar    1  UNL1        0.0400
     28 H          63.4806   79.0283   11.2121 H       1  UNL1        0.2923
     29 O          61.7537   81.0111   14.1424 O.3     1  UNL1       -0.4684
     30 C          60.3288   80.5429   14.1585 C.3     1  UNL1        0.2526
@<TRIPOS>BOND
     1    17    18    1
     2    18     9    1
     3     9    10   ar
     4    10    11   ar
     5    11     7    1
     6     7     8    2
     7     8     5    1
     8     5     6    2
     9     5     1    1
    10     1     2    2
    11     2     3    1
    12     2    19    1
    13    19    20    2
    14    20    21    1
    15    21    22   ar
    16    22    23   ar
    17    23    24   ar
    18    24    25    1
    19    24    26   ar
    20    26    29    1
    21    29    30    1
    22    26    27   ar
    23    11    12   ar
    24    12    13   ar
    25    13    14   ar
    26    14    15    1
    27    14     9   ar
    28    27    21   ar
    29     3     4    1
    30    25    28    1
    31    15    16    1
@<TRIPOS>MOLECULE
*****
 30 31 0 0 0
SMALL
GASTEIGER

@<TRIPOS>ATOM
      1 C          60.8010   87.7854   10.4831 C.2     1  UNL1        0.0786
      2 C          61.6621   86.6392   10.0417 C.2     1  UNL1        0.1369
      3 O          62.5408   86.7827    8.8345 O.2     1  UNL1       -0.5054
      4 H          62.5519   87.5883    8.3562 H       1  UNL1        0.2922
      5 C          60.8186   89.0750    9.7172 C.2     1  UNL1        0.1988
      6 O          59.7999   89.3244    8.6447 O.2     1  UNL1       -0.2865
      7 C          62.6931   89.9967   11.2622 C.2     1  UNL1        0.0034
      8 C          61.8548   90.1153   10.0239 C.2     1  UNL1        0.0421
      9 C          65.2505   92.2607   13.2830 C.ar    1  UNL1        0.1721
     10 C          64.2143   91.2204   12.9763 C.ar    1  UNL1        0.0400
     11 C          63.7293   91.0371   11.5688 C.ar    1  UNL1        0.0033
     12 C          64.2805   91.8939   10.4680 C.ar    1  UNL1        0.0033
     13 C          65.3167   92.9342   10.7746 C.ar    1  UNL1        0.0398
     14 C          65.8017   93.1176   12.1822 C.ar    1  UNL1        0.1677
     15 O          66.8380   94.1579   12.4888 O.3     1  UNL1       -0.5029
     16 H          67.1823   94.6932   11.8011 H       1  UNL1        0.2923
     17 C          67.0654   91.8871   15.1041 C.3     1  UNL1        0.2526
     18 O          65.7356   92.4441   14.6905 O.3     1  UNL1       -0.4684
     19 C          61.6445   85.3495   10.8075 C.2     1  UNL1        0.0367
     20 C          62.9086   84.8239   11.4204 C.2     1  UNL1        0.0032
     21 C          62.8909   83.5342   12.1862 C.ar    1  UNL1        0.0033
     22 C          62.9116   83.5522   13.6860 C.ar    1  UNL1        0.0033
     23 C          62.8939   82.2625   14.4518 C.ar    1  UNL1        0.0398
     24 C          62.8557   80.9549   13.7179 C.ar    1  UNL1        0.1677
     25 O          62.8380   79.6652   14.4837 O.3     1  UNL1       -0.5029
     26 C          62.8350   80.9370   12.2181 C.ar    1  UNL1        0.1721
     27 C          62.8526   82.2266   11.4523 C.ar    1  UNL1        0.0400
     28 H          62.8509   79.6764   15.4205 H       1  UNL1        0.2923
     29 O          62.7967   79.6293   11.4841 O.3     1  UNL1       -0.4684
     30 C          62.8852   79.6067    9.9870 C.3     1  UNL1        0.2526
@<TRIPOS>BOND
     1    17    18    1
     2    18     9    1
     3     9    10   ar
     4    10    11   ar
     5    11     7    1
     6     7     8    2
     7     8     5    1
     8     5     6    2
     9     5     1    1
    10     1     2    2
    11     2     3    1
    12     2    19    1
    13    19    20    2
    14    20    21    1
    15    21    22   ar
    16    22    23   ar
    17    23    24   ar
    18    24    25    1
    19    24    26   ar
    20    26    29    1
    21    29    30    1
    22    26    27   ar
    23    11    12   ar
    24    12    13   ar
    25    13    14   ar
    26    14    15    1
    27    14     9   ar
    28    27    21   ar
    29     3     4    1
    30    25    28    1
    31    15    16    1
@<TRIPOS>MOLECULE
*****
 30 31 0 0 0
SMALL
GASTEIGER

@<TRIPOS>ATOM
      1 C          63.8252   87.3027   16.1051 C.2     1  UNL1        0.0786
      2 C          63.9852   87.7336   14.6772 C.2     1  UNL1        0.1369
      3 O          63.5280   86.8348   13.5668 O.2     1  UNL1       -0.5054
      4 H          63.1424   86.0041   13.7651 H       1  UNL1        0.2922
      5 C          63.2079   85.9730   16.4225 C.2     1  UNL1        0.1988
      6 O          62.4237   85.7932   17.6885 O.2     1  UNL1       -0.2865
      7 C          62.1841   84.0056   15.0693 C.2     1  UNL1        0.0034
      8 C          63.3749   84.8230   15.4740 C.2     1  UNL1        0.0421
      9 C          63.2754   81.8941   11.8912 C.ar    1  UNL1        0.1721
     10 C          63.1084   83.0440   12.8397 C.ar    1  UNL1        0.0400
     11 C          62.3511   82.8556   14.1208 C.ar    1  UNL1        0.0033
     12 C          61.7610   81.5173   14.4533 C.ar    1  UNL1        0.0033
     13 C          61.9280   80.3674   13.5048 C.ar    1  UNL1        0.0398
     14 C          62.6853   80.5558   12.2237 C.ar    1  UNL1        0.1677
     15 O          62.8523   79.4058   11.2752 O.3     1  UNL1       -0.5029
     16 H          62.4836   78.5698   11.4829 H       1  UNL1        0.2923
     17 C          64.0361   83.4197    9.9306 C.3     1  UNL1        0.2526
     18 O          64.0327   82.0825   10.6101 O.3     1  UNL1       -0.4684
     19 C          64.6025   89.0634   14.3598 C.2     1  UNL1        0.0367
     20 C          64.1581   89.8262   13.1471 C.2     1  UNL1        0.0032
     21 C          64.7754   91.1559   12.8296 C.ar    1  UNL1        0.0033
     22 C          64.5771   91.7709   11.4760 C.ar    1  UNL1        0.0033
     23 C          65.1943   93.1006   11.1586 C.ar    1  UNL1        0.0398
     24 C          66.0099   93.8154   12.1948 C.ar    1  UNL1        0.1677
     25 O          66.6271   95.1452   11.8774 O.3     1  UNL1       -0.5029
     26 C          66.2082   93.2005   13.5485 C.ar    1  UNL1        0.1721
     27 C          65.5909   91.8707   13.8659 C.ar    1  UNL1        0.0400
     28 H          66.5032   95.5293   11.0317 H       1  UNL1        0.2923
     29 O          67.0238   93.9153   14.5848 O.3     1  UNL1       -0.4684
     30 C          68.0796   93.1745   15.3504 C.3     1  UNL1        0.2526
@<TRIPOS>BOND
     1    17    18    1
     2    18     9    1
     3     9    10   ar
     4    10    11   ar
     5    11     7    1
     6     7     8    2
     7     8     5    1
     8     5     6    2
     9     5     1    1
    10     1     2    2
    11     2     3    1
    12     2    19    1
    13    19    20    2
    14    20    21    1
    15    21    22   ar
    16    22    23   ar
    17    23    24   ar
    18    24    25    1
    19    24    26   ar
    20    26    29    1
    21    29    30    1
    22    26    27   ar
    23    11    12   ar
    24    12    13   ar
    25    13    14   ar
    26    14    15    1
    27    14     9   ar
    28    27    21   ar
    29     3     4    1
    30    25    28    1
    31    15    16    1
@<TRIPOS>MOLECULE
*****
 30 31 0 0 0
SMALL
GASTEIGER

@<TRIPOS>ATOM
      1 C          59.9690   90.9794    5.2998 C.2     1  UNL1        0.0786
      2 C          59.1073   90.0270    6.0748 C.2     1  UNL1        0.1369
      3 O          57.6139   90.0975    5.9527 O.2     1  UNL1       -0.5054
      4 H          57.2193   90.7364    5.3923 H       1  UNL1        0.2922
      5 C          59.3372   92.0023    4.4028 C.2     1  UNL1        0.1988
      6 O          57.9234   92.4412    4.6448 O.2     1  UNL1       -0.2865
      7 C          61.5501   92.1878    3.0543 C.2     1  UNL1        0.0034
      8 C          60.1193   92.5863    3.2639 C.2     1  UNL1        0.0421
      9 C          62.3966   93.9617   -0.3935 C.ar    1  UNL1        0.1721
     10 C          61.6146   93.3777    0.7455 C.ar    1  UNL1        0.0400
     11 C          62.3322   92.7719    1.9152 C.ar    1  UNL1        0.0033
     12 C          63.8317   92.7502    1.9459 C.ar    1  UNL1        0.0033
     13 C          64.6136   93.3342    0.8069 C.ar    1  UNL1        0.0398
     14 C          63.8961   93.9400   -0.3628 C.ar    1  UNL1        0.1677
     15 O          64.6781   94.5240   -1.5019 O.3     1  UNL1       -0.5029
     16 H          65.6148   94.5105   -1.4827 H       1  UNL1        0.2923
     17 C          61.3694   93.7303   -2.7686 C.3     1  UNL1        0.2526
     18 O          61.6791   94.5675   -1.5632 O.3     1  UNL1       -0.4684
     19 C          59.7390   89.0041    6.9718 C.2     1  UNL1        0.0367
     20 C          60.1370   89.3757    8.3694 C.2     1  UNL1        0.0032
     21 C          60.7688   88.3528    9.2664 C.ar    1  UNL1        0.0033
     22 C          60.5133   86.8929    9.0357 C.ar    1  UNL1        0.0033
     23 C          61.1450   85.8700    9.9327 C.ar    1  UNL1        0.0398
     24 C          62.0322   86.3070   11.0604 C.ar    1  UNL1        0.1677
     25 O          62.6639   85.2841   11.9574 O.3     1  UNL1       -0.5029
     26 C          62.2877   87.7670   11.2911 C.ar    1  UNL1        0.1721
     27 C          61.6560   88.7898   10.3941 C.ar    1  UNL1        0.0400
     28 H          62.5043   84.3721   11.8133 H       1  UNL1        0.2923
     29 O          63.1750   88.2041   12.4189 O.3     1  UNL1       -0.4684
     30 C          63.4101   89.6649   12.6653 C.3     1  UNL1        0.2526
@<TRIPOS>BOND
     1    17    18    1
     2    18     9    1
     3     9    10   ar
     4    10    11   ar
     5    11     7    1
     6     7     8    2
     7     8     5    1
     8     5     6    2
     9     5     1    1
    10     1     2    2
    11     2     3    1
    12     2    19    1
    13    19    20    2
    14    20    21    1
    15    21    22   ar
    16    22    23   ar
    17    23    24   ar
    18    24    25    1
    19    24    26   ar
    20    26    29    1
    21    29    30    1
    22    26    27   ar
    23    11    12   ar
    24    12    13   ar
    25    13    14   ar
    26    14    15    1
    27    14     9   ar
    28    27    21   ar
    29     3     4    1
    30    25    28    1
    31    15    16    1
@<TRIPOS>MOLECULE
*****
 30 31 0 0 0
SMALL
GASTEIGER

@<TRIPOS>ATOM
      1 C          59.8667   90.8339    4.7692 C.2     1  UNL1        0.0786
      2 C          59.5586   92.2230    4.2943 C.2     1  UNL1        0.1369
      3 O          58.4818   93.0234    4.9651 O.2     1  UNL1       -0.5054
      4 H          58.0017   92.6557    5.6808 H       1  UNL1        0.2922
      5 C          59.0980   90.2453    5.9149 C.2     1  UNL1        0.1988
      6 O          57.5987   90.2179    5.8769 O.2     1  UNL1       -0.2865
      7 C          59.5301   88.2928    7.5736 C.2     1  UNL1        0.0034
      8 C          59.8286   89.6839    7.0986 C.2     1  UNL1        0.0421
      9 C          61.3760   88.0679   11.0796 C.ar    1  UNL1        0.1721
     10 C          60.6454   88.6291    9.8959 C.ar    1  UNL1        0.0400
     11 C          60.2607   87.7315    8.7573 C.ar    1  UNL1        0.0033
     12 C          60.6067   86.2727    8.8024 C.ar    1  UNL1        0.0033
     13 C          61.3373   85.7114    9.9861 C.ar    1  UNL1        0.0398
     14 C          61.7220   86.6090   11.1247 C.ar    1  UNL1        0.1677
     15 O          62.4527   86.0477   12.3084 O.3     1  UNL1       -0.5029
     16 H          62.6688   85.1364   12.3366 H       1  UNL1        0.2923
     17 C          63.1489   89.5288   12.2931 C.3     1  UNL1        0.2526
     18 O          61.7607   88.9655   12.2181 O.3     1  UNL1       -0.4684
     19 C          60.3272   92.8117    3.1486 C.2     1  UNL1        0.0367
     20 C          61.7056   92.3107    2.8340 C.2     1  UNL1        0.0032
     21 C          62.4742   92.8994    1.6883 C.ar    1  UNL1        0.0033
     22 C          63.9740   92.8944    1.7100 C.ar    1  UNL1        0.0033
     23 C          64.7427   93.4831    0.5643 C.ar    1  UNL1        0.0398
     24 C          64.0115   94.0767   -0.6032 C.ar    1  UNL1        0.1677
     25 O          64.7802   94.6654   -1.7489 O.3     1  UNL1       -0.5029
     26 C          62.5117   94.0817   -0.6249 C.ar    1  UNL1        0.1721
     27 C          61.7431   93.4930    0.5208 C.ar    1  UNL1        0.0400
     28 H          65.7171   94.6623   -1.7353 H       1  UNL1        0.2923
     29 O          61.7805   94.6753   -1.7924 O.3     1  UNL1       -0.4684
     30 C          61.3715   93.8041   -2.9429 C.3     1  UNL1        0.2526
@<TRIPOS>BOND
     1    17    18    1
     2    18     9    1
     3     9    10   ar
     4    10    11   ar
     5    11     7    1
     6     7     8    2
     7     8     5    1
     8     5     6    2
     9     5     1    1
    10     1     2    2
    11     2     3    1
    12     2    19    1
    13    19    20    2
    14    20    21    1
    15    21    22   ar
    16    22    23   ar
    17    23    24   ar
    18    24    25    1
    19    24    26   ar
    20    26    29    1
    21    29    30    1
    22    26    27   ar
    23    11    12   ar
    24    12    13   ar
    25    13    14   ar
    26    14    15    1
    27    14     9   ar
    28    27    21   ar
    29     3     4    1
    30    25    28    1
    31    15    16    1
