@<TRIPOS>MOLECULE
*****
 31 34 0 0 0
SMALL
GASTEIGER

@<TRIPOS>ATOM
      1 C          63.9124   87.9134   14.2218 C.ar    1  UNL1        0.2204
      2 N          63.8721   87.5598   15.6789 N.ar    1  UNL1       -0.2089
      3 C          63.4601   86.1819   16.1052 C.ar    1  UNL1        0.1402
      4 C          63.0886   85.1576   15.0743 C.ar    1  UNL1        0.1773
      5 C          63.1289   85.5113   13.6171 C.ar    1  UNL1        0.1402
      6 N          63.5408   86.8891   13.1909 N.ar    1  UNL1       -0.2089
      7 N          65.1483   92.0471   12.9429 N.pl3   1  UNL1       -0.2723
      8 C          65.7422   91.4348   14.1767 C.3     1  UNL1        0.1152
      9 C          65.3302   90.0569   14.6030 C.3     1  UNL1        0.1151
     10 N          64.3244   89.2914   13.7954 N.pl3   1  UNL1       -0.2764
     11 C          63.7305   89.9036   12.5616 C.3     1  UNL1        0.0954
     12 C          62.7246   89.1381   11.7541 C.3     1  UNL1        0.0233
     13 C          64.1424   91.2815   12.1354 C.3     1  UNL1        0.1135
     14 C          65.9396   95.4074   11.1686 C.ar    1  UNL1        0.2371
     15 N          65.3905   94.0117   11.1465 N.ar    1  UNL1       -0.1778
     16 C          65.5602   93.4250   12.5166 C.ar    1  UNL1        0.2593
     17 N          66.2142   94.4581   13.3855 N.ar    1  UNL1       -0.0400
     18 O          66.4487   95.6833   12.5524 O.2     1  UNL1       -0.3357
     19 C          67.2893   96.8164    9.4531 C.3     1  UNL1        0.0098
     20 C          65.9736   96.3599   10.0104 C.3     1  UNL1        0.0793
     21 C          64.6919   96.8560    9.4095 C.3     1  UNL1        0.0098
     22 O          62.6766   83.7797   15.5006 O.3     1  UNL1       -0.4675
     23 C          63.4225   82.5825   14.9904 C.3     1  UNL1        0.2329
     24 C          63.5016   82.3205   13.5156 C.ar    1  UNL1        0.0339
     25 C          64.6419   82.8763   12.7152 C.ar    1  UNL1        0.0207
     26 C          64.7209   82.6143   11.2404 C.ar    1  UNL1        0.0987
     27 N          63.6596   81.7965   10.5660 N.ar    1  UNL1       -0.2416
     28 C          62.5193   81.2407   11.3664 C.ar    1  UNL1        0.1089
     29 C          62.4403   81.5028   12.8412 C.ar    1  UNL1        0.0871
     30 C          61.2999   80.9470   13.6416 C.1     1  UNL1        0.1018
     31 N          60.1595   80.3912   14.4420 N.1     1  UNL1       -0.1908
@<TRIPOS>BOND
     1    19    20    1
     2    20    21    1
     3    20    14    1
     4    14    15   ar
     5    15    16   ar
     6    16     7    1
     7     7     8    1
     8     8     9    1
     9     9    10    1
    10    10     1    1
    11     1     2   ar
    12     2     3   ar
    13     3     4   ar
    14     4    22    1
    15    22    23    1
    16    23    24    1
    17    24    25   ar
    18    25    26   ar
    19    26    27   ar
    20    27    28   ar
    21    28    29   ar
    22    29    30    1
    23    30    31    3
    24     4     5   ar
    25     5     6   ar
    26    10    11    1
    27    11    12    1
    28    11    13    1
    29    16    17   ar
    30    17    18   ar
    31    18    14   ar
    32    13     7    1
    33     6     1   ar
    34    29    24   ar
@<TRIPOS>MOLECULE
*****
 31 34 0 0 0
SMALL
GASTEIGER

@<TRIPOS>ATOM
      1 C          63.6394   87.3054   14.8733 C.ar    1  UNL1        0.2204
      2 N          63.1748   87.7413   16.2312 N.ar    1  UNL1       -0.2089
      3 C          63.3485   89.1679   16.6611 C.ar    1  UNL1        0.1402
      4 C          63.9869   90.1585   15.7330 C.ar    1  UNL1        0.1773
      5 C          64.4515   89.7224   14.3750 C.ar    1  UNL1        0.1402
      6 N          64.2778   88.2959   13.9452 N.ar    1  UNL1       -0.2089
      7 N          63.1183   83.0257   13.5837 N.pl3   1  UNL1       -0.2723
      8 C          63.5441   83.3395   14.9873 C.3     1  UNL1        0.1152
      9 C          63.7178   84.7660   15.4172 C.3     1  UNL1        0.1151
     10 N          63.4657   85.8788   14.4434 N.pl3   1  UNL1       -0.2764
     11 C          63.0399   85.5650   13.0398 C.3     1  UNL1        0.0954
     12 C          62.7877   86.6777   12.0660 C.3     1  UNL1        0.0233
     13 C          62.8662   84.1385   12.6099 C.3     1  UNL1        0.1135
     14 C          62.7813   79.6066   11.7776 C.ar    1  UNL1        0.2371
     15 N          63.0108   81.0885   11.7449 N.ar    1  UNL1       -0.1778
     16 C          62.9446   81.5991   13.1538 C.ar    1  UNL1        0.2593
     17 N          62.6741   80.4327   14.0573 N.ar    1  UNL1       -0.0400
     18 O          62.5732   79.2012   13.2068 O.2     1  UNL1       -0.3357
     19 C          62.6871   79.2607    9.2044 C.3     1  UNL1        0.0098
     20 C          62.7631   78.6908   10.5898 C.3     1  UNL1        0.0793
     21 C          62.8209   77.2050   10.7874 C.3     1  UNL1        0.0098
     22 O          64.1606   91.5850   16.1629 O.3     1  UNL1       -0.4675
     23 C          64.8212   92.5698   15.2444 C.3     1  UNL1        0.2329
     24 C          66.3038   92.5119   15.0237 C.ar    1  UNL1        0.0339
     25 C          67.2398   92.5910   16.1931 C.ar    1  UNL1        0.0207
     26 C          68.7223   92.5330   15.9723 C.ar    1  UNL1        0.0987
     27 N          69.2688   92.3960   14.5821 N.ar    1  UNL1       -0.2416
     28 C          68.3328   92.3169   13.4127 C.ar    1  UNL1        0.1089
     29 C          66.8503   92.3749   13.6335 C.ar    1  UNL1        0.0871
     30 C          65.9142   92.2958   12.4640 C.1     1  UNL1        0.1018
     31 N          64.9781   92.2168   11.2947 N.1     1  UNL1       -0.1908
@<TRIPOS>BOND
     1    19    20    1
     2    20    21    1
     3    20    14    1
     4    14    15   ar
     5    15    16   ar
     6    16     7    1
     7     7     8    1
     8     8     9    1
     9     9    10    1
    10    10     1    1
    11     1     2   ar
    12     2     3   ar
    13     3     4   ar
    14     4    22    1
    15    22    23    1
    16    23    24    1
    17    24    25   ar
    18    25    26   ar
    19    26    27   ar
    20    27    28   ar
    21    28    29   ar
    22    29    30    1
    23    30    31    3
    24     4     5   ar
    25     5     6   ar
    26    10    11    1
    27    11    12    1
    28    11    13    1
    29    16    17   ar
    30    17    18   ar
    31    18    14   ar
    32    13     7    1
    33     6     1   ar
    34    29    24   ar
@<TRIPOS>MOLECULE
*****
 31 34 0 0 0
SMALL
GASTEIGER

@<TRIPOS>ATOM
      1 C          64.4144   89.4951   13.4445 C.ar    1  UNL1        0.2204
      2 N          65.2914   90.1389   14.4770 N.ar    1  UNL1       -0.2089
      3 C          65.6536   91.5894   14.3546 C.ar    1  UNL1        0.1402
      4 C          65.1386   92.3960   13.1995 C.ar    1  UNL1        0.1773
      5 C          64.2616   91.7521   12.1668 C.ar    1  UNL1        0.1402
      6 N          63.8995   90.3017   12.2894 N.ar    1  UNL1       -0.2089
      7 N          63.3282   85.1437   13.8120 N.pl3   1  UNL1       -0.2723
      8 C          64.1893   85.7923   14.8548 C.3     1  UNL1        0.1152
      9 C          64.5514   87.2428   14.7323 C.3     1  UNL1        0.1151
     10 N          64.0523   88.0445   13.5669 N.pl3   1  UNL1       -0.2764
     11 C          63.1911   87.3959   12.5241 C.3     1  UNL1        0.0954
     12 C          62.6920   88.1977   11.3587 C.3     1  UNL1        0.0233
     13 C          62.8291   85.9454   12.6466 C.3     1  UNL1        0.1135
     14 C          62.5937   81.3542   13.4039 C.ar    1  UNL1        0.2371
     15 N          63.0524   82.6676   12.8431 N.ar    1  UNL1       -0.1778
     16 C          62.9660   83.6931   13.9344 C.ar    1  UNL1        0.2593
     17 N          62.4540   83.0135   15.1697 N.ar    1  UNL1       -0.0400
     18 O          62.2239   81.5679   14.8418 O.2     1  UNL1       -0.3357
     19 C          62.1371   78.7967   13.3796 C.3     1  UNL1        0.0098
     20 C          62.5182   80.0551   12.6578 C.3     1  UNL1        0.0793
     21 C          62.8237   80.0145   11.1898 C.3     1  UNL1        0.0098
     22 O          65.5007   93.8465   13.0770 O.3     1  UNL1       -0.4675
     23 C          66.6149   94.2669   12.1649 C.3     1  UNL1        0.2329
     24 C          66.3086   95.0207   10.9047 C.ar    1  UNL1        0.0339
     25 C          65.2693   96.1022   10.9115 C.ar    1  UNL1        0.0207
     26 C          64.9631   96.8560    9.6513 C.ar    1  UNL1        0.0987
     27 N          65.6961   96.5282    8.3844 N.ar    1  UNL1       -0.2416
     28 C          66.7354   95.4466    8.3776 C.ar    1  UNL1        0.1089
     29 C          67.0416   94.6929    9.6377 C.ar    1  UNL1        0.0871
     30 C          68.0810   93.6113    9.6310 C.1     1  UNL1        0.1018
     31 N          69.1203   92.5297    9.6243 N.1     1  UNL1       -0.1908
@<TRIPOS>BOND
     1    19    20    1
     2    20    21    1
     3    20    14    1
     4    14    15   ar
     5    15    16   ar
     6    16     7    1
     7     7     8    1
     8     8     9    1
     9     9    10    1
    10    10     1    1
    11     1     2   ar
    12     2     3   ar
    13     3     4   ar
    14     4    22    1
    15    22    23    1
    16    23    24    1
    17    24    25   ar
    18    25    26   ar
    19    26    27   ar
    20    27    28   ar
    21    28    29   ar
    22    29    30    1
    23    30    31    3
    24     4     5   ar
    25     5     6   ar
    26    10    11    1
    27    11    12    1
    28    11    13    1
    29    16    17   ar
    30    17    18   ar
    31    18    14   ar
    32    13     7    1
    33     6     1   ar
    34    29    24   ar
@<TRIPOS>MOLECULE
*****
 31 34 0 0 0
SMALL
GASTEIGER

@<TRIPOS>ATOM
      1 C          63.8497   88.3252   13.0933 C.ar    1  UNL1        0.2204
      2 N          64.6352   88.8487   14.2590 N.ar    1  UNL1       -0.2089
      3 C          64.9118   90.3182   14.3778 C.ar    1  UNL1        0.1402
      4 C          64.4029   91.2642   13.3308 C.ar    1  UNL1        0.1773
      5 C          63.6174   90.7406   12.1650 C.ar    1  UNL1        0.1402
      6 N          63.3408   89.2712   12.0463 N.ar    1  UNL1       -0.2089
      7 N          63.0199   83.9168   12.7368 N.pl3   1  UNL1       -0.2723
      8 C          62.5290   84.8602   11.6791 C.3     1  UNL1        0.1152
      9 C          62.8056   86.3297   11.7979 C.3     1  UNL1        0.1151
     10 N          63.5731   86.8557   12.9745 N.pl3   1  UNL1       -0.2764
     11 C          64.0640   85.9122   14.0322 C.3     1  UNL1        0.0954
     12 C          64.8315   86.4382   15.2088 C.3     1  UNL1        0.0233
     13 C          63.7874   84.4427   13.9134 C.3     1  UNL1        0.1135
     14 C          62.5678   80.1960   11.7281 C.ar    1  UNL1        0.2371
     15 N          62.9854   81.5998   11.4042 N.ar    1  UNL1       -0.1778
     16 C          62.7433   82.4472   12.6180 C.ar    1  UNL1        0.2593
     17 N          62.1761   81.5672   13.6921 N.ar    1  UNL1       -0.0400
     18 O          62.0676   80.1759   13.1422 O.2     1  UNL1       -0.3357
     19 C          62.7205   79.2357    9.3189 C.3     1  UNL1        0.0098
     20 C          62.6381   79.0190   10.8009 C.3     1  UNL1        0.0793
     21 C          62.6259   77.6255   11.3557 C.3     1  UNL1        0.0098
     22 O          64.6795   92.7337   13.4496 O.3     1  UNL1       -0.4675
     23 C          66.0771   93.2501   13.2770 C.3     1  UNL1        0.2329
     24 C          66.7571   93.1428   11.9442 C.ar    1  UNL1        0.0339
     25 C          67.4478   91.8695   11.5549 C.ar    1  UNL1        0.0207
     26 C          68.1278   91.7623   10.2222 C.ar    1  UNL1        0.0987
     27 N          68.1170   92.9284    9.2788 N.ar    1  UNL1       -0.2416
     28 C          67.4263   94.2017    9.6681 C.ar    1  UNL1        0.1089
     29 C          66.7463   94.3089   11.0008 C.ar    1  UNL1        0.0871
     30 C          66.0556   95.5823   11.3901 C.1     1  UNL1        0.1018
     31 N          65.3648   96.8556   11.7793 N.1     1  UNL1       -0.1908
@<TRIPOS>BOND
     1    19    20    1
     2    20    21    1
     3    20    14    1
     4    14    15   ar
     5    15    16   ar
     6    16     7    1
     7     7     8    1
     8     8     9    1
     9     9    10    1
    10    10     1    1
    11     1     2   ar
    12     2     3   ar
    13     3     4   ar
    14     4    22    1
    15    22    23    1
    16    23    24    1
    17    24    25   ar
    18    25    26   ar
    19    26    27   ar
    20    27    28   ar
    21    28    29   ar
    22    29    30    1
    23    30    31    3
    24     4     5   ar
    25     5     6   ar
    26    10    11    1
    27    11    12    1
    28    11    13    1
    29    16    17   ar
    30    17    18   ar
    31    18    14   ar
    32    13     7    1
    33     6     1   ar
    34    29    24   ar
@<TRIPOS>MOLECULE
*****
 31 34 0 0 0
SMALL
GASTEIGER

@<TRIPOS>ATOM
      1 C          63.5344   87.6858   13.3623 C.ar    1  UNL1        0.2204
      2 N          64.2510   88.1977   14.5765 N.ar    1  UNL1       -0.2089
      3 C          64.4243   89.6740   14.7783 C.ar    1  UNL1        0.1402
      4 C          63.8809   90.6383   13.7659 C.ar    1  UNL1        0.1773
      5 C          63.1642   90.1262   12.5517 C.ar    1  UNL1        0.1402
      6 N          62.9910   88.6500   12.3499 N.ar    1  UNL1       -0.2089
      7 N          63.0145   83.2571   12.7568 N.pl3   1  UNL1       -0.2723
      8 C          62.6702   84.2107   11.6514 C.3     1  UNL1        0.1152
      9 C          62.8435   85.6869   11.8532 C.3     1  UNL1        0.1151
     10 N          63.3611   86.2095   13.1605 N.pl3   1  UNL1       -0.2764
     11 C          63.7054   85.2559   14.2659 C.3     1  UNL1        0.0954
     12 C          64.2230   85.7785   15.5732 C.3     1  UNL1        0.0233
     13 C          63.5322   83.7797   14.0641 C.3     1  UNL1        0.1135
     14 C          62.7535   79.5872   11.5201 C.ar    1  UNL1        0.2371
     15 N          63.0289   81.0394   11.2646 N.ar    1  UNL1       -0.1778
     16 C          62.8413   81.7808   12.5550 C.ar    1  UNL1        0.2593
     17 N          62.4500   80.7869   13.6080 N.ar    1  UNL1       -0.0400
     18 O          62.3958   79.4312   12.9685 O.2     1  UNL1       -0.3357
     19 C          62.8034   77.0526   10.9515 C.3     1  UNL1        0.0098
     20 C          62.8237   78.4846   10.5056 C.3     1  UNL1        0.0793
     21 C          62.9141   78.8141    9.0450 C.3     1  UNL1        0.0098
     22 O          64.0541   92.1145   13.9677 O.3     1  UNL1       -0.4675
     23 C          65.4291   92.6944   14.1195 C.3     1  UNL1        0.2329
     24 C          66.4646   92.4563   13.0607 C.ar    1  UNL1        0.0339
     25 C          66.0900   92.5482   11.6112 C.ar    1  UNL1        0.0207
     26 C          67.1255   92.3101   10.5524 C.ar    1  UNL1        0.0987
     27 N          68.5357   91.9803   10.9432 N.ar    1  UNL1       -0.2416
     28 C          68.9103   91.8884   12.3927 C.ar    1  UNL1        0.1089
     29 C          67.8748   92.1265   13.4515 C.ar    1  UNL1        0.0871
     30 C          68.2494   92.0346   14.9011 C.1     1  UNL1        0.1018
     31 N          68.6239   91.9428   16.3506 N.1     1  UNL1       -0.1908
@<TRIPOS>BOND
     1    19    20    1
     2    20    21    1
     3    20    14    1
     4    14    15   ar
     5    15    16   ar
     6    16     7    1
     7     7     8    1
     8     8     9    1
     9     9    10    1
    10    10     1    1
    11     1     2   ar
    12     2     3   ar
    13     3     4   ar
    14     4    22    1
    15    22    23    1
    16    23    24    1
    17    24    25   ar
    18    25    26   ar
    19    26    27   ar
    20    27    28   ar
    21    28    29   ar
    22    29    30    1
    23    30    31    3
    24     4     5   ar
    25     5     6   ar
    26    10    11    1
    27    11    12    1
    28    11    13    1
    29    16    17   ar
    30    17    18   ar
    31    18    14   ar
    32    13     7    1
    33     6     1   ar
    34    29    24   ar
@<TRIPOS>MOLECULE
*****
 31 34 0 0 0
SMALL
GASTEIGER

@<TRIPOS>ATOM
      1 C          63.6424   87.5901   13.2966 C.ar    1  UNL1        0.2204
      2 N          64.3411   88.0952   14.5241 N.ar    1  UNL1       -0.2089
      3 C          64.5406   89.5688   14.7208 C.ar    1  UNL1        0.1402
      4 C          64.0413   90.5374   13.6899 C.ar    1  UNL1        0.1773
      5 C          63.3426   90.0323   12.4624 C.ar    1  UNL1        0.1402
      6 N          63.1431   88.5587   12.2658 N.ar    1  UNL1       -0.2089
      7 N          63.0440   83.1693   12.7067 N.pl3   1  UNL1       -0.2723
      8 C          63.7916   83.6714   13.9062 C.3     1  UNL1        0.1152
      9 C          63.9911   85.1450   14.1028 C.3     1  UNL1        0.1151
     10 N          63.4429   86.1165   13.0999 N.pl3   1  UNL1       -0.2764
     11 C          62.6953   85.6144   11.9004 C.3     1  UNL1        0.0954
     12 C          62.1471   86.5858   10.8976 C.3     1  UNL1        0.0233
     13 C          62.4958   84.1408   11.7038 C.3     1  UNL1        0.1135
     14 C          62.7503   79.4948   11.4912 C.ar    1  UNL1        0.2371
     15 N          63.0715   80.9375   11.2357 N.ar    1  UNL1       -0.1778
     16 C          62.8445   81.6956   12.5100 C.ar    1  UNL1        0.2593
     17 N          62.3831   80.7214   13.5530 N.ar    1  UNL1       -0.0400
     18 O          62.3248   79.3612   12.9234 O.2     1  UNL1       -0.3357
     19 C          62.8002   76.9540   10.9506 C.3     1  UNL1        0.0098
     20 C          62.8390   78.3811   10.4902 C.3     1  UNL1        0.0793
     21 C          62.9665   78.6946    9.0289 C.3     1  UNL1        0.0098
     22 O          64.2408   92.0110   13.8866 O.3     1  UNL1       -0.4675
     23 C          65.4760   92.6777   13.3577 C.3     1  UNL1        0.2329
     24 C          66.7845   92.5068   14.0710 C.ar    1  UNL1        0.0339
     25 C          68.0533   92.3579   13.2851 C.ar    1  UNL1        0.0207
     26 C          69.3617   92.1870   13.9984 C.ar    1  UNL1        0.0987
     27 N          69.4012   92.1650   15.4977 N.ar    1  UNL1       -0.2416
     28 C          68.1324   92.3140   16.2837 C.ar    1  UNL1        0.1089
     29 C          66.8240   92.4849   15.5704 C.ar    1  UNL1        0.0871
     30 C          65.5551   92.6338   16.3564 C.1     1  UNL1        0.1018
     31 N          64.2862   92.7827   17.1423 N.1     1  UNL1       -0.1908
@<TRIPOS>BOND
     1    19    20    1
     2    20    21    1
     3    20    14    1
     4    14    15   ar
     5    15    16   ar
     6    16     7    1
     7     7     8    1
     8     8     9    1
     9     9    10    1
    10    10     1    1
    11     1     2   ar
    12     2     3   ar
    13     3     4   ar
    14     4    22    1
    15    22    23    1
    16    23    24    1
    17    24    25   ar
    18    25    26   ar
    19    26    27   ar
    20    27    28   ar
    21    28    29   ar
    22    29    30    1
    23    30    31    3
    24     4     5   ar
    25     5     6   ar
    26    10    11    1
    27    11    12    1
    28    11    13    1
    29    16    17   ar
    30    17    18   ar
    31    18    14   ar
    32    13     7    1
    33     6     1   ar
    34    29    24   ar
@<TRIPOS>MOLECULE
*****
 31 34 0 0 0
SMALL
GASTEIGER

@<TRIPOS>ATOM
      1 C          59.8574   89.5024    6.9338 C.ar    1  UNL1        0.2204
      2 N          60.3966   89.9660    8.2545 N.ar    1  UNL1       -0.2089
      3 C          60.4585   89.0166    9.4143 C.ar    1  UNL1        0.1402
      4 C          59.9811   87.6038    9.2533 C.ar    1  UNL1        0.1773
      5 C          59.4418   87.1403    7.9325 C.ar    1  UNL1        0.1402
      6 N          59.3800   88.0896    6.7728 N.ar    1  UNL1       -0.2089
      7 N          59.6720   92.3503    3.4545 N.pl3   1  UNL1       -0.2723
      8 C          60.9998   91.8690    3.9599 C.3     1  UNL1        0.1152
      9 C          61.0615   90.9198    5.1196 C.3     1  UNL1        0.1151
     10 N          59.7956   90.4517    5.7740 N.pl3   1  UNL1       -0.2764
     11 C          58.4678   90.9329    5.2687 C.3     1  UNL1        0.0954
     12 C          57.2018   90.4649    5.9231 C.3     1  UNL1        0.0233
     13 C          58.4060   91.8822    4.1089 C.3     1  UNL1        0.1135
     14 C          59.2300   94.2161    0.0797 C.ar    1  UNL1        0.2371
     15 N          59.1128   92.9769    0.9168 N.ar    1  UNL1       -0.1778
     16 C          59.6101   93.2996    2.2947 C.ar    1  UNL1        0.2593
     17 N          60.0348   94.7381    2.3092 N.ar    1  UNL1       -0.0400
     18 O          59.7999   95.3046    0.9403 O.2     1  UNL1       -0.3357
     19 C          59.5494   93.5238   -2.4040 C.3     1  UNL1        0.0098
     20 C          58.8451   94.3442   -1.3643 C.3     1  UNL1        0.0793
     21 C          57.7558   95.2929   -1.7688 C.3     1  UNL1        0.0098
     22 O          60.0429   86.6545   10.4130 O.3     1  UNL1       -0.4675
     23 C          61.3233   86.4844   11.1755 C.3     1  UNL1        0.2329
     24 C          62.2955   85.4128   10.7794 C.ar    1  UNL1        0.0339
     25 C          62.6862   85.2493    9.3405 C.ar    1  UNL1        0.0207
     26 C          63.6583   84.1778    8.9445 C.ar    1  UNL1        0.0987
     27 N          64.2396   83.2698    9.9873 N.ar    1  UNL1       -0.2416
     28 C          63.8489   83.4333   11.4263 C.ar    1  UNL1        0.1089
     29 C          62.8768   84.5048   11.8223 C.ar    1  UNL1        0.0871
     30 C          62.4860   84.6684   13.2613 C.1     1  UNL1        0.1018
     31 N          62.0952   84.8319   14.7002 N.1     1  UNL1       -0.1908
@<TRIPOS>BOND
     1    19    20    1
     2    20    21    1
     3    20    14    1
     4    14    15   ar
     5    15    16   ar
     6    16     7    1
     7     7     8    1
     8     8     9    1
     9     9    10    1
    10    10     1    1
    11     1     2   ar
    12     2     3   ar
    13     3     4   ar
    14     4    22    1
    15    22    23    1
    16    23    24    1
    17    24    25   ar
    18    25    26   ar
    19    26    27   ar
    20    27    28   ar
    21    28    29   ar
    22    29    30    1
    23    30    31    3
    24     4     5   ar
    25     5     6   ar
    26    10    11    1
    27    11    12    1
    28    11    13    1
    29    16    17   ar
    30    17    18   ar
    31    18    14   ar
    32    13     7    1
    33     6     1   ar
    34    29    24   ar
@<TRIPOS>MOLECULE
*****
 31 34 0 0 0
SMALL
GASTEIGER

@<TRIPOS>ATOM
      1 C          59.8938   89.4143    6.9433 C.ar    1  UNL1        0.2204
      2 N          58.4273   89.6574    6.7428 N.ar    1  UNL1       -0.2089
      3 C          57.9638   90.6217    5.6914 C.ar    1  UNL1        0.1402
      4 C          58.9668   91.3429    4.8406 C.ar    1  UNL1        0.1773
      5 C          60.4334   91.0997    5.0412 C.ar    1  UNL1        0.1402
      6 N          60.8968   90.1355    6.0925 N.ar    1  UNL1       -0.2089
      7 N          61.2843   86.5214   10.0973 N.pl3   1  UNL1       -0.2723
      8 C          60.9859   86.0330    8.7108 C.3     1  UNL1        0.1152
      9 C          60.5224   86.9973    7.6595 C.3     1  UNL1        0.1151
     10 N          60.3573   88.4500    7.9947 N.pl3   1  UNL1       -0.2764
     11 C          60.6557   88.9384    9.3812 C.3     1  UNL1        0.0954
     12 C          60.4906   90.3911    9.7164 C.3     1  UNL1        0.0233
     13 C          61.1192   87.9741   10.4325 C.3     1  UNL1        0.1135
     14 C          62.4835   83.5256   12.2544 C.ar    1  UNL1        0.2371
     15 N          62.0564   84.1043   10.9381 N.ar    1  UNL1       -0.1778
     16 C          61.7479   85.5571   11.1487 C.ar    1  UNL1        0.2593
     17 N          61.9842   85.8762   12.5951 N.ar    1  UNL1       -0.0400
     18 O          62.4388   84.6207   13.2785 O.2     1  UNL1       -0.3357
     19 C          63.1895   81.1957   11.3470 C.3     1  UNL1        0.0098
     20 C          62.8847   82.1018   12.5030 C.3     1  UNL1        0.0793
     21 C          62.9810   81.5840   13.9075 C.3     1  UNL1        0.0098
     22 O          58.5033   92.3072    3.7893 O.3     1  UNL1       -0.4675
     23 C          59.4932   93.2005    3.1023 C.3     1  UNL1        0.2329
     24 C          59.7469   93.0478    1.6317 C.ar    1  UNL1        0.0339
     25 C          58.6427   93.3051    0.6496 C.ar    1  UNL1        0.0207
     26 C          58.8964   93.1525   -0.8209 C.ar    1  UNL1        0.0987
     27 N          60.2541   92.7426   -1.3092 N.ar    1  UNL1       -0.2416
     28 C          61.3583   92.4853   -0.3271 C.ar    1  UNL1        0.1089
     29 C          61.1046   92.6379    1.1434 C.ar    1  UNL1        0.0871
     30 C          62.2088   92.3807    2.1257 C.1     1  UNL1        0.1018
     31 N          63.3129   92.1234    3.1079 N.1     1  UNL1       -0.1908
@<TRIPOS>BOND
     1    19    20    1
     2    20    21    1
     3    20    14    1
     4    14    15   ar
     5    15    16   ar
     6    16     7    1
     7     7     8    1
     8     8     9    1
     9     9    10    1
    10    10     1    1
    11     1     2   ar
    12     2     3   ar
    13     3     4   ar
    14     4    22    1
    15    22    23    1
    16    23    24    1
    17    24    25   ar
    18    25    26   ar
    19    26    27   ar
    20    27    28   ar
    21    28    29   ar
    22    29    30    1
    23    30    31    3
    24     4     5   ar
    25     5     6   ar
    26    10    11    1
    27    11    12    1
    28    11    13    1
    29    16    17   ar
    30    17    18   ar
    31    18    14   ar
    32    13     7    1
    33     6     1   ar
    34    29    24   ar
@<TRIPOS>MOLECULE
*****
 31 34 0 0 0
SMALL
GASTEIGER

@<TRIPOS>ATOM
      1 C          56.5270   95.2871   -1.9866 C.ar    1  UNL1        0.2204
      2 N          57.5625   96.3546   -1.7918 N.ar    1  UNL1       -0.2089
      3 C          58.7522   96.0947   -0.9158 C.ar    1  UNL1        0.1402
      4 C          58.9062   94.7671   -0.2347 C.ar    1  UNL1        0.1773
      5 C          57.8706   93.6996   -0.4295 C.ar    1  UNL1        0.1402
      6 N          56.6810   93.9595   -1.3054 N.ar    1  UNL1       -0.2089
      7 N          52.9582   96.0668   -4.6144 N.pl3   1  UNL1       -0.2723
      8 C          54.1989   95.4567   -5.1961 C.3     1  UNL1        0.1152
      9 C          55.3884   95.1968   -4.3202 C.3     1  UNL1        0.1151
     10 N          55.3373   95.5470   -2.8625 N.pl3   1  UNL1       -0.2764
     11 C          54.0967   96.1571   -2.2808 C.3     1  UNL1        0.0954
     12 C          54.0456   96.5073   -0.8232 C.3     1  UNL1        0.0233
     13 C          52.9071   96.4170   -3.1568 C.3     1  UNL1        0.1135
     14 C          49.4851   96.6548   -6.2446 C.ar    1  UNL1        0.2371
     15 N          50.3367   96.3631   -5.0448 N.ar    1  UNL1       -0.1778
     16 C          51.7685   96.3268   -5.4904 C.ar    1  UNL1        0.2593
     17 N          51.8019   96.5960   -6.9656 N.ar    1  UNL1       -0.0400
     18 O          50.3906   96.7987   -7.4318 O.2     1  UNL1       -0.3357
     19 C          47.2514   96.8313   -7.5598 C.3     1  UNL1        0.0098
     20 C          47.9904   96.7805   -6.2554 C.3     1  UNL1        0.0793
     21 C          47.2347   96.8554   -4.9619 C.3     1  UNL1        0.0098
     22 O          60.0958   94.5072    0.6412 O.3     1  UNL1       -0.4675
     23 C          59.9072   93.9110    2.0046 C.3     1  UNL1        0.2329
     24 C          60.9382   92.9754    2.5633 C.ar    1  UNL1        0.0339
     25 C          62.3236   92.9564    1.9887 C.ar    1  UNL1        0.0207
     26 C          63.3544   92.0209    2.5473 C.ar    1  UNL1        0.0987
     27 N          62.9998   91.1044    3.6806 N.ar    1  UNL1       -0.2416
     28 C          61.6144   91.1234    4.2552 C.ar    1  UNL1        0.1089
     29 C          60.5836   92.0589    3.6965 C.ar    1  UNL1        0.0871
     30 C          59.1981   92.0779    4.2711 C.1     1  UNL1        0.1018
     31 N          57.8126   92.0969    4.8457 N.1     1  UNL1       -0.1908
@<TRIPOS>BOND
     1    19    20    1
     2    20    21    1
     3    20    14    1
     4    14    15   ar
     5    15    16   ar
     6    16     7    1
     7     7     8    1
     8     8     9    1
     9     9    10    1
    10    10     1    1
    11     1     2   ar
    12     2     3   ar
    13     3     4   ar
    14     4    22    1
    15    22    23    1
    16    23    24    1
    17    24    25   ar
    18    25    26   ar
    19    26    27   ar
    20    27    28   ar
    21    28    29   ar
    22    29    30    1
    23    30    31    3
    24     4     5   ar
    25     5     6   ar
    26    10    11    1
    27    11    12    1
    28    11    13    1
    29    16    17   ar
    30    17    18   ar
    31    18    14   ar
    32    13     7    1
    33     6     1   ar
    34    29    24   ar
