@<TRIPOS>MOLECULE
*****
 32 36 0 0 0
SMALL
GASTEIGER

@<TRIPOS>ATOM
      1 C          64.1731   88.0255   14.5495 C.ar    1  UNL1        0.0177
      2 C          64.0881   87.5665   15.9750 C.ar    1  UNL1        0.0046
      3 C          63.6273   86.1738   16.2882 C.ar    1  UNL1        0.0374
      4 C          63.2516   85.2402   15.1759 C.ar    1  UNL1        0.1478
      5 N          62.7660   83.8209   15.1777 N.ar    1  UNL1       -0.2249
      6 C          62.5509   83.4028   13.7533 C.ar    1  UNL1        0.1180
      7 C          62.9036   84.5637   12.8712 C.ar    1  UNL1        0.0845
      8 N          63.3366   85.6992   13.7504 N.ar    1  UNL1       -0.2888
      9 C          63.7973   87.0919   13.4372 C.ar    1  UNL1        0.0814
     10 C          65.5553   92.2037   13.6097 C.ar    1  UNL1        0.0536
     11 C          66.2577   91.4006   14.6642 C.ar    1  UNL1        0.0045
     12 C          65.7970   90.0079   14.9774 C.ar    1  UNL1        0.0002
     13 C          64.6338   89.4183   14.2362 C.ar    1  UNL1        0.0015
     14 C          63.9314   90.2212   13.1818 C.ar    1  UNL1        0.0002
     15 C          64.3921   91.6140   12.8686 C.ar    1  UNL1        0.0045
     16 C          67.1076   95.1885    7.6156 C.3     1  UNL1        0.0897
     17 N          66.8347   94.7905    9.0358 N.3     1  UNL1       -0.2686
     18 C          66.3740   93.3978    9.3490 C.3     1  UNL1        0.0939
     19 C          66.1011   92.9997   10.7693 C.3     1  UNL1        0.1110
     20 N          66.2890   93.9944   11.8763 N.am    1  UNL1       -0.2732
     21 C          66.0161   93.5963   13.2965 C.2     1  UNL1        0.2491
     22 O          66.2040   94.5909   14.4035 O.2     1  UNL1       -0.2699
     23 C          66.7497   95.3871   11.5630 C.3     1  UNL1        0.1110
     24 C          67.0226   95.7851   10.1428 C.3     1  UNL1        0.0939
     25 C          62.8352   84.5852   11.3729 C.ar    1  UNL1        0.0177
     26 C          63.7002   83.6601   10.5693 C.ar    1  UNL1        0.0022
     27 C          63.6319   83.6816    9.0710 C.ar    1  UNL1        0.0103
     28 C          62.6985   84.6283    8.3763 C.ar    1  UNL1        0.0684
     29 C          61.8335   85.5534    9.1800 C.ar    1  UNL1        0.0103
     30 C          61.9019   85.5319   10.6782 C.ar    1  UNL1        0.0022
     31 C          62.6301   84.6498    6.8780 C.1     1  UNL1        0.1004
     32 N          62.5618   84.6714    5.3798 N.1     1  UNL1       -0.1908
@<TRIPOS>BOND
     1    16    17    1
     2    17    18    1
     3    18    19    1
     4    19    20    1
     5    20    21   am
     6    21    22    2
     7    21    10    1
     8    10    11   ar
     9    11    12   ar
    10    12    13   ar
    11    13     1    1
    12     1     2   ar
    13     2     3   ar
    14     3     4   ar
    15     4     5   ar
    16     5     6   ar
    17     6     7   ar
    18     7    25    1
    19    25    26   ar
    20    26    27   ar
    21    27    28   ar
    22    28    31    1
    23    31    32    3
    24    28    29   ar
    25    29    30   ar
    26     7     8   ar
    27     8     9   ar
    28    13    14   ar
    29    14    15   ar
    30    20    23    1
    31    23    24    1
    32    24    17    1
    33    15    10   ar
    34     9     1   ar
    35     8     4   ar
    36    30    25   ar
@<TRIPOS>MOLECULE
*****
 32 36 0 0 0
SMALL
GASTEIGER

@<TRIPOS>ATOM
      1 C          61.6919   86.4734   10.1147 C.ar    1  UNL1        0.0177
      2 C          61.8484   85.0145    9.8034 C.ar    1  UNL1        0.0046
      3 C          62.5940   84.1214   10.7502 C.ar    1  UNL1        0.0374
      4 C          63.1830   84.6873   12.0083 C.ar    1  UNL1        0.1478
      5 N          63.9643   84.0567   13.1229 N.ar    1  UNL1       -0.2249
      6 C          64.2905   85.1260   14.1229 C.ar    1  UNL1        0.1180
      7 C          63.7109   86.4174   13.6265 C.ar    1  UNL1        0.0845
      8 N          63.0265   86.1463   12.3196 N.ar    1  UNL1       -0.2888
      9 C          62.2809   87.0393   11.3728 C.ar    1  UNL1        0.0814
     10 C          59.4551   89.1528    7.2742 C.ar    1  UNL1        0.0536
     11 C          60.2224   89.7465    8.4183 C.ar    1  UNL1        0.0045
     12 C          60.9680   88.8534    9.3651 C.ar    1  UNL1        0.0002
     13 C          60.9462   87.3666    9.1679 C.ar    1  UNL1        0.0015
     14 C          60.1789   86.7729    8.0239 C.ar    1  UNL1        0.0002
     15 C          59.4333   87.6660    7.0770 C.ar    1  UNL1        0.0045
     16 C          61.6970   93.1554    2.1555 C.3     1  UNL1        0.0897
     17 N          60.9501   92.3781    3.1985 N.3     1  UNL1       -0.2686
     18 C          61.6957   91.4850    4.1452 C.3     1  UNL1        0.0939
     19 C          60.9488   90.7075    5.1883 C.3     1  UNL1        0.1110
     20 N          59.4564   90.8233    5.2845 N.am    1  UNL1       -0.2732
     21 C          58.7095   90.0460    6.3275 C.2     1  UNL1        0.2491
     22 O          57.2171   90.1617    6.4237 O.2     1  UNL1       -0.2699
     23 C          58.7108   91.7165    4.3377 C.3     1  UNL1        0.1110
     24 C          59.4577   92.4939    3.2947 C.3     1  UNL1        0.0939
     25 C          63.8001   87.7466   14.3159 C.ar    1  UNL1        0.0177
     26 C          64.2847   88.9505   13.5638 C.ar    1  UNL1        0.0022
     27 C          64.3739   90.2797   14.2532 C.ar    1  UNL1        0.0103
     28 C          63.9786   90.4051   15.6947 C.ar    1  UNL1        0.0684
     29 C          63.4940   89.2011   16.4468 C.ar    1  UNL1        0.0103
     30 C          63.4048   87.8719   15.7574 C.ar    1  UNL1        0.0022
     31 C          64.0678   91.7342   16.3841 C.1     1  UNL1        0.1004
     32 N          64.1570   93.0634   17.0735 N.1     1  UNL1       -0.1908
@<TRIPOS>BOND
     1    16    17    1
     2    17    18    1
     3    18    19    1
     4    19    20    1
     5    20    21   am
     6    21    22    2
     7    21    10    1
     8    10    11   ar
     9    11    12   ar
    10    12    13   ar
    11    13     1    1
    12     1     2   ar
    13     2     3   ar
    14     3     4   ar
    15     4     5   ar
    16     5     6   ar
    17     6     7   ar
    18     7    25    1
    19    25    26   ar
    20    26    27   ar
    21    27    28   ar
    22    28    31    1
    23    31    32    3
    24    28    29   ar
    25    29    30   ar
    26     7     8   ar
    27     8     9   ar
    28    13    14   ar
    29    14    15   ar
    30    20    23    1
    31    23    24    1
    32    24    17    1
    33    15    10   ar
    34     9     1   ar
    35     8     4   ar
    36    30    25   ar
@<TRIPOS>MOLECULE
*****
 32 36 0 0 0
SMALL
GASTEIGER

@<TRIPOS>ATOM
      1 C          61.8909   89.5667   10.3937 C.ar    1  UNL1        0.0177
      2 C          61.5373   88.3173   11.1446 C.ar    1  UNL1        0.0046
      3 C          60.5445   87.3518   10.5685 C.ar    1  UNL1        0.0374
      4 C          59.9052   87.6356    9.2416 C.ar    1  UNL1        0.1478
      5 N          58.8997   86.8751    8.4287 N.ar    1  UNL1       -0.2249
      6 C          58.6319   87.6546    7.1754 C.ar    1  UNL1        0.1180
      7 C          59.4719   88.8968    7.2137 C.ar    1  UNL1        0.0845
      8 N          60.2588   88.8850    8.4907 N.ar    1  UNL1       -0.2888
      9 C          61.2517   89.8506    9.0667 C.ar    1  UNL1        0.0814
     10 C          64.8696   92.4635   12.1218 C.ar    1  UNL1        0.0536
     11 C          64.1586   91.4942   13.0190 C.ar    1  UNL1        0.0045
     12 C          63.1658   90.5287   12.4430 C.ar    1  UNL1        0.0002
     13 C          62.8839   90.5323   10.9697 C.ar    1  UNL1        0.0015
     14 C          63.5948   91.5016   10.0725 C.ar    1  UNL1        0.0002
     15 C          64.5878   92.4672   10.6485 C.ar    1  UNL1        0.0045
     16 C          69.4465   91.7203   17.1962 C.3     1  UNL1        0.0897
     17 N          68.5505   92.1475   16.0716 N.3     1  UNL1       -0.2686
     18 C          67.5577   91.1820   15.4956 C.3     1  UNL1        0.0939
     19 C          66.6616   91.6091   14.3709 C.3     1  UNL1        0.1110
     20 N          66.7585   93.0019   13.8224 N.am    1  UNL1       -0.2732
     21 C          65.8625   93.4291   12.6979 C.2     1  UNL1        0.2491
     22 O          65.9594   94.8218   12.1494 O.2     1  UNL1       -0.2699
     23 C          67.7514   93.9675   14.3985 C.3     1  UNL1        0.1110
     24 C          68.6474   93.5403   15.5231 C.3     1  UNL1        0.0939
     25 C          59.5171   89.9634    6.1601 C.ar    1  UNL1        0.0177
     26 C          60.8240   90.3352    5.5247 C.ar    1  UNL1        0.0022
     27 C          60.8692   91.4019    4.4711 C.ar    1  UNL1        0.0103
     28 C          59.6074   92.0968    4.0527 C.ar    1  UNL1        0.0684
     29 C          58.3005   91.7250    4.6881 C.ar    1  UNL1        0.0103
     30 C          58.2553   90.6583    5.7417 C.ar    1  UNL1        0.0022
     31 C          59.6526   93.1634    2.9991 C.1     1  UNL1        0.1004
     32 N          59.6977   94.2301    1.9454 N.1     1  UNL1       -0.1908
@<TRIPOS>BOND
     1    16    17    1
     2    17    18    1
     3    18    19    1
     4    19    20    1
     5    20    21   am
     6    21    22    2
     7    21    10    1
     8    10    11   ar
     9    11    12   ar
    10    12    13   ar
    11    13     1    1
    12     1     2   ar
    13     2     3   ar
    14     3     4   ar
    15     4     5   ar
    16     5     6   ar
    17     6     7   ar
    18     7    25    1
    19    25    26   ar
    20    26    27   ar
    21    27    28   ar
    22    28    31    1
    23    31    32    3
    24    28    29   ar
    25    29    30   ar
    26     7     8   ar
    27     8     9   ar
    28    13    14   ar
    29    14    15   ar
    30    20    23    1
    31    23    24    1
    32    24    17    1
    33    15    10   ar
    34     9     1   ar
    35     8     4   ar
    36    30    25   ar
@<TRIPOS>MOLECULE
*****
 32 36 0 0 0
SMALL
GASTEIGER

@<TRIPOS>ATOM
      1 C          63.9229   88.0326   15.1669 C.ar    1  UNL1        0.0177
      2 C          63.2507   88.3288   16.4747 C.ar    1  UNL1        0.0046
      3 C          63.2668   89.7231   17.0275 C.ar    1  UNL1        0.0374
      4 C          63.9553   90.8213   16.2724 C.ar    1  UNL1        0.1478
      5 N          64.1344   92.2815   16.5655 N.ar    1  UNL1       -0.2249
      6 C          64.9173   92.8877   15.4389 C.ar    1  UNL1        0.1180
      7 C          65.2221   91.8022   14.4495 C.ar    1  UNL1        0.0845
      8 N          64.6275   90.5251   14.9646 N.ar    1  UNL1       -0.2888
      9 C          64.6113   89.1308   14.4119 C.ar    1  UNL1        0.0814
     10 C          63.8744   83.8496   13.5085 C.ar    1  UNL1        0.0536
     11 C          64.3580   84.0965   14.9068 C.ar    1  UNL1        0.0045
     12 C          64.3741   85.4908   15.4596 C.ar    1  UNL1        0.0002
     13 C          63.9067   86.6383   14.6141 C.ar    1  UNL1        0.0015
     14 C          63.4231   86.3914   13.2158 C.ar    1  UNL1        0.0002
     15 C          63.4070   84.9970   12.6630 C.ar    1  UNL1        0.0045
     16 C          59.3237   78.7559   14.2792 C.3     1  UNL1        0.0897
     17 N          60.4573   79.6807   13.9483 N.3     1  UNL1       -0.2686
     18 C          60.4735   81.0750   14.5011 C.3     1  UNL1        0.0939
     19 C          61.6071   81.9999   14.1702 C.3     1  UNL1        0.1110
     20 N          62.7246   81.5304   13.2866 N.am    1  UNL1       -0.2732
     21 C          63.8583   82.4553   12.9557 C.2     1  UNL1        0.2491
     22 O          64.9758   81.9858   12.0721 O.2     1  UNL1       -0.2699
     23 C          62.7084   80.1360   12.7339 C.3     1  UNL1        0.1110
     24 C          61.5748   79.2112   13.0647 C.3     1  UNL1        0.0939
     25 C          65.9871   91.9653   13.1696 C.ar    1  UNL1        0.0177
     26 C          65.2612   92.2931   11.8985 C.ar    1  UNL1        0.0022
     27 C          66.0263   92.4561   10.6186 C.ar    1  UNL1        0.0103
     28 C          67.5171   92.2913   10.6097 C.ar    1  UNL1        0.0684
     29 C          68.2430   91.9635   11.8808 C.ar    1  UNL1        0.0103
     30 C          67.4780   91.8005   13.1607 C.ar    1  UNL1        0.0022
     31 C          68.2822   92.4544    9.3298 C.1     1  UNL1        0.1004
     32 N          69.0472   92.6174    8.0499 N.1     1  UNL1       -0.1908
@<TRIPOS>BOND
     1    16    17    1
     2    17    18    1
     3    18    19    1
     4    19    20    1
     5    20    21   am
     6    21    22    2
     7    21    10    1
     8    10    11   ar
     9    11    12   ar
    10    12    13   ar
    11    13     1    1
    12     1     2   ar
    13     2     3   ar
    14     3     4   ar
    15     4     5   ar
    16     5     6   ar
    17     6     7   ar
    18     7    25    1
    19    25    26   ar
    20    26    27   ar
    21    27    28   ar
    22    28    31    1
    23    31    32    3
    24    28    29   ar
    25    29    30   ar
    26     7     8   ar
    27     8     9   ar
    28    13    14   ar
    29    14    15   ar
    30    20    23    1
    31    23    24    1
    32    24    17    1
    33    15    10   ar
    34     9     1   ar
    35     8     4   ar
    36    30    25   ar
@<TRIPOS>MOLECULE
*****
 32 36 0 0 0
SMALL
GASTEIGER

@<TRIPOS>ATOM
      1 C          61.7225   94.7166   -2.3699 C.ar    1  UNL1        0.0177
      2 C          63.0195   95.1735   -2.9689 C.ar    1  UNL1        0.0046
      3 C          64.2916   95.0545   -2.1831 C.ar    1  UNL1        0.0374
      4 C          64.2666   94.4787   -0.7982 C.ar    1  UNL1        0.1478
      5 N          65.3523   94.2384    0.2086 N.ar    1  UNL1       -0.2249
      6 C          64.7261   93.6330    1.4299 C.ar    1  UNL1        0.1180
      7 C          63.2535   93.4992    1.1778 C.ar    1  UNL1        0.0845
      8 N          62.9695   94.0218   -0.1992 N.ar    1  UNL1       -0.2888
      9 C          61.6974   94.1408   -0.9851 C.ar    1  UNL1        0.0814
     10 C          57.9060   95.0735   -4.7275 C.ar    1  UNL1        0.0536
     11 C          58.8126   96.2599   -4.5837 C.ar    1  UNL1        0.0045
     12 C          60.0846   96.1409   -3.7979 C.ar    1  UNL1        0.0002
     13 C          60.4503   94.8355   -3.1558 C.ar    1  UNL1        0.0015
     14 C          59.5438   93.6491   -3.2996 C.ar    1  UNL1        0.0002
     15 C          58.2717   93.7681   -4.0855 C.ar    1  UNL1        0.0045
     16 C          51.5581   96.8432   -2.7729 C.3     1  UNL1        0.0897
     17 N          52.8270   96.4305   -3.4580 N.3     1  UNL1       -0.2686
     18 C          54.0991   96.3115   -2.6722 C.3     1  UNL1        0.0939
     19 C          55.3682   95.8988   -3.3573 C.3     1  UNL1        0.1110
     20 N          55.3650   95.6051   -4.8283 N.am    1  UNL1       -0.2732
     21 C          56.6340   95.1925   -5.5134 C.2     1  UNL1        0.2491
     22 O          56.6308   94.8988   -6.9843 O.2     1  UNL1       -0.2699
     23 C          54.0928   95.7241   -5.6141 C.3     1  UNL1        0.1110
     24 C          52.8239   96.1368   -4.9290 C.3     1  UNL1        0.0939
     25 C          62.2423   92.9407    2.1347 C.ar    1  UNL1        0.0177
     26 C          62.6319   91.8456    3.0829 C.ar    1  UNL1        0.0022
     27 C          61.6207   91.2871    4.0398 C.ar    1  UNL1        0.0103
     28 C          60.2201   91.8238    4.0486 C.ar    1  UNL1        0.0684
     29 C          59.8306   92.9189    3.1005 C.ar    1  UNL1        0.0103
     30 C          60.8417   93.4774    2.1436 C.ar    1  UNL1        0.0022
     31 C          59.2089   91.2653    5.0056 C.1     1  UNL1        0.1004
     32 N          58.1978   90.7069    5.9625 N.1     1  UNL1       -0.1908
@<TRIPOS>BOND
     1    16    17    1
     2    17    18    1
     3    18    19    1
     4    19    20    1
     5    20    21   am
     6    21    22    2
     7    21    10    1
     8    10    11   ar
     9    11    12   ar
    10    12    13   ar
    11    13     1    1
    12     1     2   ar
    13     2     3   ar
    14     3     4   ar
    15     4     5   ar
    16     5     6   ar
    17     6     7   ar
    18     7    25    1
    19    25    26   ar
    20    26    27   ar
    21    27    28   ar
    22    28    31    1
    23    31    32    3
    24    28    29   ar
    25    29    30   ar
    26     7     8   ar
    27     8     9   ar
    28    13    14   ar
    29    14    15   ar
    30    20    23    1
    31    23    24    1
    32    24    17    1
    33    15    10   ar
    34     9     1   ar
    35     8     4   ar
    36    30    25   ar
@<TRIPOS>MOLECULE
*****
 32 36 0 0 0
SMALL
GASTEIGER

@<TRIPOS>ATOM
      1 C          59.8949   94.7952   -5.0016 C.ar    1  UNL1        0.0177
      2 C          60.0733   94.5192   -6.4651 C.ar    1  UNL1        0.0046
      3 C          61.4484   94.3111   -7.0269 C.ar    1  UNL1        0.0374
      4 C          62.6451   94.3789   -6.1252 C.ar    1  UNL1        0.1478
      5 N          64.1125   94.2165   -6.3908 N.ar    1  UNL1       -0.2249
      6 C          64.8410   94.3921   -5.0914 C.ar    1  UNL1        0.1180
      7 C          63.8239   94.6630   -4.0227 C.ar    1  UNL1        0.0845
      8 N          62.4668   94.6548   -4.6616 N.ar    1  UNL1       -0.2888
      9 C          61.0917   94.8630   -4.0998 C.ar    1  UNL1        0.0814
     10 C          55.7694   95.4197   -3.3160 C.ar    1  UNL1        0.0536
     11 C          56.2120   94.0464   -3.7264 C.ar    1  UNL1        0.0045
     12 C          57.5872   93.8383   -4.2882 C.ar    1  UNL1        0.0002
     13 C          58.5197   95.0034   -4.4397 C.ar    1  UNL1        0.0015
     14 C          58.0772   96.3766   -4.0294 C.ar    1  UNL1        0.0002
     15 C          56.7020   96.5848   -3.4675 C.ar    1  UNL1        0.0045
     16 C          49.8086   96.8552   -6.4236 C.3     1  UNL1        0.0897
     17 N          50.9550   96.5484   -5.5063 N.3     1  UNL1       -0.2686
     18 C          52.3301   96.3403   -6.0681 C.3     1  UNL1        0.0939
     19 C          53.4766   96.0334   -5.1507 C.3     1  UNL1        0.1110
     20 N          53.2479   95.9347   -3.6716 N.am    1  UNL1       -0.2732
     21 C          54.3943   95.6278   -2.7542 C.2     1  UNL1        0.2491
     22 O          54.1656   95.5291   -1.2750 O.2     1  UNL1       -0.2699
     23 C          51.8727   96.1428   -3.1097 C.3     1  UNL1        0.1110
     24 C          50.7263   96.4497   -4.0271 C.3     1  UNL1        0.0939
     25 C          64.1131   94.9004   -2.5702 C.ar    1  UNL1        0.0177
     26 C          63.6249   93.9262   -1.5393 C.ar    1  UNL1        0.0022
     27 C          63.9140   94.1636   -0.0867 C.ar    1  UNL1        0.0103
     28 C          64.6914   95.3751    0.3351 C.ar    1  UNL1        0.0684
     29 C          65.1797   96.3492   -0.6958 C.ar    1  UNL1        0.0103
     30 C          64.8905   96.1118   -2.1484 C.ar    1  UNL1        0.0022
     31 C          64.9806   95.6125    1.7877 C.1     1  UNL1        0.1004
     32 N          65.2698   95.8499    3.2402 N.1     1  UNL1       -0.1908
@<TRIPOS>BOND
     1    16    17    1
     2    17    18    1
     3    18    19    1
     4    19    20    1
     5    20    21   am
     6    21    22    2
     7    21    10    1
     8    10    11   ar
     9    11    12   ar
    10    12    13   ar
    11    13     1    1
    12     1     2   ar
    13     2     3   ar
    14     3     4   ar
    15     4     5   ar
    16     5     6   ar
    17     6     7   ar
    18     7    25    1
    19    25    26   ar
    20    26    27   ar
    21    27    28   ar
    22    28    31    1
    23    31    32    3
    24    28    29   ar
    25    29    30   ar
    26     7     8   ar
    27     8     9   ar
    28    13    14   ar
    29    14    15   ar
    30    20    23    1
    31    23    24    1
    32    24    17    1
    33    15    10   ar
    34     9     1   ar
    35     8     4   ar
    36    30    25   ar
@<TRIPOS>MOLECULE
*****
 32 36 0 0 0
SMALL
GASTEIGER

@<TRIPOS>ATOM
      1 C          45.6078   76.6052   20.2893 C.ar    1  UNL1        0.0177
      2 C          45.6646   76.8202   21.7727 C.ar    1  UNL1        0.0046
      3 C          45.3475   78.1687   22.3477 C.ar    1  UNL1        0.0374
      4 C          44.9735   79.3023   21.4394 C.ar    1  UNL1        0.1478
      5 N          44.6116   80.7318   21.7149 N.ar    1  UNL1       -0.2249
      6 C          44.3311   81.4002   20.4017 C.ar    1  UNL1        0.1180
      7 C          44.5197   80.3839   19.3146 C.ar    1  UNL1        0.0845
      8 N          44.9167   79.0874   19.9560 N.ar    1  UNL1       -0.2888
      9 C          45.2339   77.7388   19.3809 C.ar    1  UNL1        0.0814
     10 C          46.5593   72.5594   18.5639 C.ar    1  UNL1        0.0536
     11 C          47.6670   73.4481   19.0473 C.ar    1  UNL1        0.0045
     12 C          47.3498   74.7966   19.6224 C.ar    1  UNL1        0.0002
     13 C          45.9250   75.2566   19.7141 C.ar    1  UNL1        0.0015
     14 C          44.8174   74.3680   19.2308 C.ar    1  UNL1        0.0002
     15 C          45.1346   73.0194   18.6556 C.ar    1  UNL1        0.0045
     16 C          44.6370   69.6225   12.6539 C.3     1  UNL1        0.0897
     17 N          45.1969   70.0196   13.9876 N.3     1  UNL1       -0.2686
     18 C          44.8797   71.3681   14.5627 C.3     1  UNL1        0.0939
     19 C          45.4396   71.7653   15.8965 C.3     1  UNL1        0.1110
     20 N          46.3167   70.8138   16.6551 N.am    1  UNL1       -0.2732
     21 C          46.8765   71.2109   17.9888 C.2     1  UNL1        0.2491
     22 O          47.7536   70.2594   18.7474 O.2     1  UNL1       -0.2699
     23 C          46.6338   69.4652   16.0799 C.3     1  UNL1        0.1110
     24 C          46.0740   69.0681   14.7462 C.3     1  UNL1        0.0939
     25 C          44.3424   80.6223   17.8444 C.ar    1  UNL1        0.0177
     26 C          44.5793   81.9885   17.2721 C.ar    1  UNL1        0.0022
     27 C          44.4020   82.2269   15.8019 C.ar    1  UNL1        0.0103
     28 C          43.9877   81.0991   14.9038 C.ar    1  UNL1        0.0684
     29 C          43.7508   79.7330   15.4760 C.ar    1  UNL1        0.0103
     30 C          43.9281   79.4946   16.9463 C.ar    1  UNL1        0.0022
     31 C          43.8104   81.3375   13.4335 C.1     1  UNL1        0.1004
     32 N          43.6331   81.5759   11.9632 N.1     1  UNL1       -0.1908
@<TRIPOS>BOND
     1    16    17    1
     2    17    18    1
     3    18    19    1
     4    19    20    1
     5    20    21   am
     6    21    22    2
     7    21    10    1
     8    10    11   ar
     9    11    12   ar
    10    12    13   ar
    11    13     1    1
    12     1     2   ar
    13     2     3   ar
    14     3     4   ar
    15     4     5   ar
    16     5     6   ar
    17     6     7   ar
    18     7    25    1
    19    25    26   ar
    20    26    27   ar
    21    27    28   ar
    22    28    31    1
    23    31    32    3
    24    28    29   ar
    25    29    30   ar
    26     7     8   ar
    27     8     9   ar
    28    13    14   ar
    29    14    15   ar
    30    20    23    1
    31    23    24    1
    32    24    17    1
    33    15    10   ar
    34     9     1   ar
    35     8     4   ar
    36    30    25   ar
@<TRIPOS>MOLECULE
*****
 32 36 0 0 0
SMALL
GASTEIGER

@<TRIPOS>ATOM
      1 C          61.1863   87.3830    9.9661 C.ar    1  UNL1        0.0177
      2 C          60.8947   85.9154   10.0722 C.ar    1  UNL1        0.0046
      3 C          61.5253   85.1025   11.1636 C.ar    1  UNL1        0.0374
      4 C          62.4476   85.7570   12.1490 C.ar    1  UNL1        0.1478
      5 N          63.2102   85.2164   13.3221 N.ar    1  UNL1       -0.2249
      6 C          63.9732   86.3499   13.9411 C.ar    1  UNL1        0.1180
      7 C          63.6822   87.5909   13.1504 C.ar    1  UNL1        0.0845
      8 N          62.7393   87.2245   12.0429 N.ar    1  UNL1       -0.2888
      9 C          62.1087   88.0375   10.9514 C.ar    1  UNL1        0.0814
     10 C          59.2944   89.8221    6.6916 C.ar    1  UNL1        0.0536
     11 C          59.2134   88.3247    6.6539 C.ar    1  UNL1        0.0045
     12 C          59.8440   87.5117    7.7453 C.ar    1  UNL1        0.0002
     13 C          60.5557   88.1960    8.8746 C.ar    1  UNL1        0.0015
     14 C          60.6367   89.6933    8.9124 C.ar    1  UNL1        0.0002
     15 C          60.0061   90.5064    7.8209 C.ar    1  UNL1        0.0045
     16 C          62.1119   93.3684    1.5211 C.3     1  UNL1        0.0897
     17 N          61.2499   92.6851    2.5409 N.3     1  UNL1       -0.2686
     18 C          61.8805   91.8721    3.6323 C.3     1  UNL1        0.0939
     19 C          61.0185   91.1887    4.6521 C.3     1  UNL1        0.1110
     20 N          59.5258   91.3184    4.5804 N.am    1  UNL1       -0.2732
     21 C          58.6638   90.6351    5.6002 C.2     1  UNL1        0.2491
     22 O          57.1711   90.7647    5.5285 O.2     1  UNL1       -0.2699
     23 C          58.8952   92.1314    3.4889 C.3     1  UNL1        0.1110
     24 C          59.7572   92.8147    2.4692 C.3     1  UNL1        0.0939
     25 C          64.2366   88.9583   13.4200 C.ar    1  UNL1        0.0177
     26 C          65.0328   89.2127   14.6656 C.ar    1  UNL1        0.0022
     27 C          65.5872   90.5801   14.9352 C.ar    1  UNL1        0.0103
     28 C          65.3456   91.6932   13.9593 C.ar    1  UNL1        0.0684
     29 C          64.5495   91.4389   12.7137 C.ar    1  UNL1        0.0103
     30 C          63.9950   90.0715   12.4441 C.ar    1  UNL1        0.0022
     31 C          65.9001   93.0607   14.2289 C.1     1  UNL1        0.1004
     32 N          66.4545   94.4281   14.4985 N.1     1  UNL1       -0.1908
@<TRIPOS>BOND
     1    16    17    1
     2    17    18    1
     3    18    19    1
     4    19    20    1
     5    20    21   am
     6    21    22    2
     7    21    10    1
     8    10    11   ar
     9    11    12   ar
    10    12    13   ar
    11    13     1    1
    12     1     2   ar
    13     2     3   ar
    14     3     4   ar
    15     4     5   ar
    16     5     6   ar
    17     6     7   ar
    18     7    25    1
    19    25    26   ar
    20    26    27   ar
    21    27    28   ar
    22    28    31    1
    23    31    32    3
    24    28    29   ar
    25    29    30   ar
    26     7     8   ar
    27     8     9   ar
    28    13    14   ar
    29    14    15   ar
    30    20    23    1
    31    23    24    1
    32    24    17    1
    33    15    10   ar
    34     9     1   ar
    35     8     4   ar
    36    30    25   ar
@<TRIPOS>MOLECULE
*****
 32 36 0 0 0
SMALL
GASTEIGER

@<TRIPOS>ATOM
      1 C          44.1759   79.6340   15.9577 C.ar    1  UNL1        0.0177
      2 C          44.1482   80.8250   16.8691 C.ar    1  UNL1        0.0046
      3 C          43.9945   82.2033   16.2977 C.ar    1  UNL1        0.0374
      4 C          43.8685   82.3906   14.8148 C.ar    1  UNL1        0.1478
      5 N          43.7063   83.6184   13.9684 N.ar    1  UNL1       -0.2249
      6 C          43.6338   83.1862   12.5338 C.ar    1  UNL1        0.1180
      7 C          43.7512   81.6913   12.4936 C.ar    1  UNL1        0.0845
      8 N          43.8962   81.1996   13.9033 N.ar    1  UNL1       -0.2888
      9 C          44.0499   79.8213   14.4748 C.ar    1  UNL1        0.0814
     10 C          44.6371   75.4989   17.6721 C.ar    1  UNL1        0.0536
     11 C          45.1471   76.6872   18.4323 C.ar    1  UNL1        0.0045
     12 C          44.9934   78.0655   17.8608 C.ar    1  UNL1        0.0002
     13 C          44.3296   78.2556   16.5291 C.ar    1  UNL1        0.0015
     14 C          43.8197   77.0674   15.7689 C.ar    1  UNL1        0.0002
     15 C          43.9734   75.6890   16.3404 C.ar    1  UNL1        0.0045
     16 C          46.0961   69.5064   14.6374 C.3     1  UNL1        0.0897
     17 N          45.7698   70.6599   15.5389 N.3     1  UNL1       -0.2686
     18 C          45.6161   72.0382   14.9675 C.3     1  UNL1        0.0939
     19 C          45.2897   73.1918   15.8690 C.3     1  UNL1        0.1110
     20 N          45.1172   72.9671   17.3420 N.am    1  UNL1       -0.2732
     21 C          44.7908   74.1206   18.2435 C.2     1  UNL1        0.2491
     22 O          44.6183   73.8959   19.7165 O.2     1  UNL1       -0.2699
     23 C          45.2709   71.5887   17.9134 C.3     1  UNL1        0.1110
     24 C          45.5972   70.4351   17.0119 C.3     1  UNL1        0.0939
     25 C          43.7276   80.8379   11.2603 C.ar    1  UNL1        0.0177
     26 C          43.6726   79.3439   11.3829 C.ar    1  UNL1        0.0022
     27 C          43.6491   78.4906   10.1496 C.ar    1  UNL1        0.0103
     28 C          43.6805   79.1311    8.7936 C.ar    1  UNL1        0.0684
     29 C          43.7355   80.6250    8.6710 C.ar    1  UNL1        0.0103
     30 C          43.7590   81.4784    9.9043 C.ar    1  UNL1        0.0022
     31 C          43.6569   78.2777    7.5602 C.1     1  UNL1        0.1004
     32 N          43.6334   77.4243    6.3269 N.1     1  UNL1       -0.1908
@<TRIPOS>BOND
     1    16    17    1
     2    17    18    1
     3    18    19    1
     4    19    20    1
     5    20    21   am
     6    21    22    2
     7    21    10    1
     8    10    11   ar
     9    11    12   ar
    10    12    13   ar
    11    13     1    1
    12     1     2   ar
    13     2     3   ar
    14     3     4   ar
    15     4     5   ar
    16     5     6   ar
    17     6     7   ar
    18     7    25    1
    19    25    26   ar
    20    26    27   ar
    21    27    28   ar
    22    28    31    1
    23    31    32    3
    24    28    29   ar
    25    29    30   ar
    26     7     8   ar
    27     8     9   ar
    28    13    14   ar
    29    14    15   ar
    30    20    23    1
    31    23    24    1
    32    24    17    1
    33    15    10   ar
    34     9     1   ar
    35     8     4   ar
    36    30    25   ar
