@<TRIPOS>MOLECULE
*****
 42 48 0 0 0
SMALL
GASTEIGER

@<TRIPOS>ATOM
      1 C          61.8159   89.2962   10.1812 C.ar    1  UNL1        0.0508
      2 C          61.8941   90.7486   10.5480 C.ar    1  UNL1        0.0147
      3 C          62.5110   91.1608   11.8517 C.ar    1  UNL1        0.0019
      4 C          63.0496   90.1206   12.7885 C.ar    1  UNL1        0.0090
      5 C          62.9715   88.6682   12.4218 C.ar    1  UNL1        0.0307
      6 S          63.4149   87.4269   13.1376 S.2     1  UNL1       -0.0869
      7 C          63.0722   86.2476   12.2764 C.ar    1  UNL1        0.0295
      8 C          63.2721   84.7734   12.4675 C.ar    1  UNL1        0.0065
      9 C          62.8167   83.8115   11.4105 C.ar    1  UNL1        0.0005
     10 C          62.1614   84.3240   10.1623 C.ar    1  UNL1        0.0000
     11 C          61.9615   85.7982    9.9712 C.ar    1  UNL1        0.0006
     12 C          62.4168   86.7600   11.0283 C.ar    1  UNL1        0.0077
     13 C          62.3546   88.2560   11.1181 C.ar    1  UNL1        0.0200
     14 C          63.6665   90.5328   14.0922 C.ar    1  UNL1        0.0352
     15 C          63.1645   89.9460   15.3783 C.ar    1  UNL1        0.0031
     16 C          63.7813   90.3581   16.6819 C.ar    1  UNL1        0.0003
     17 C          64.9001   91.3571   16.6997 C.ar    1  UNL1        0.0062
     18 C          65.4021   91.9439   15.4137 C.ar    1  UNL1        0.0736
     19 C          66.5209   92.9429   15.4314 C.ar    1  UNL1        0.2030
     20 O          67.1378   93.3551   16.7351 O.2     1  UNL1       -0.2863
     21 C          67.0229   93.5297   14.1455 C.ar    1  UNL1        0.0955
     22 C          66.4060   93.1175   12.8417 C.ar    1  UNL1        0.2024
     23 O          65.2872   92.1185   12.8240 O.2     1  UNL1       -0.4398
     24 C          64.7853   91.5317   14.1099 C.ar    1  UNL1        0.1498
     25 N          66.9080   93.7043   11.5558 N.pl3   1  UNL1       -0.2742
     26 C          66.6531   95.1484   11.2404 C.3     1  UNL1        0.1257
     27 C          67.1550   95.7352    9.9544 C.3     1  UNL1        0.1637
     28 O          67.9120   94.8779    8.9839 O.3     1  UNL1       -0.3501
     29 C          68.1670   93.4338    9.2993 C.3     1  UNL1        0.1637
     30 C          67.6650   92.8470   10.5852 C.3     1  UNL1        0.1257
     31 C          59.9583   89.5684    8.3853 C.2     1  UNL1        0.2425
     32 O          59.3344   90.6648    9.1968 O.2     1  UNL1       -0.2733
     33 N          61.1990   88.8841    8.8774 N.am    1  UNL1       -0.2828
     34 H          61.6085   88.1645    8.3448 H       1  UNL1        0.1549
     35 C          59.3414   89.1563    7.0816 C.3     1  UNL1        0.1588
     36 C          59.2911   92.9685    2.4486 C.3     1  UNL1        0.0897
     37 N          59.3037   92.0154    3.6068 N.3     1  UNL1       -0.2691
     38 C          60.5958   91.4033    4.0604 C.3     1  UNL1        0.0897
     39 C          60.6084   90.4502    5.2186 C.3     1  UNL1        0.0900
     40 N          59.3288   90.1093    5.9234 N.3     1  UNL1       -0.2626
     41 C          58.0367   90.7215    5.4698 C.3     1  UNL1        0.0900
     42 C          58.0241   91.6745    4.3116 C.3     1  UNL1        0.0897
@<TRIPOS>BOND
     1    36    37    1
     2    37    38    1
     3    38    39    1
     4    39    40    1
     5    40    35    1
     6    35    31    1
     7    31    32    2
     8    31    33   am
     9    33     1    1
    10     1     2   ar
    11     2     3   ar
    12     3     4   ar
    13     4    14    1
    14    14    15   ar
    15    15    16   ar
    16    16    17   ar
    17    17    18   ar
    18    18    19   ar
    19    19    20    2
    20    19    21   ar
    21    21    22   ar
    22    22    25    1
    23    25    26    1
    24    26    27    1
    25    27    28    1
    26    28    29    1
    27    29    30    1
    28    22    23   ar
    29    23    24   ar
    30     4     5   ar
    31     5     6   ar
    32     6     7   ar
    33     7     8   ar
    34     8     9   ar
    35     9    10   ar
    36    10    11   ar
    37    11    12   ar
    38    12    13   ar
    39    40    41    1
    40    41    42    1
    41    42    37    1
    42    13     1   ar
    43    24    14   ar
    44    13     5   ar
    45    24    18   ar
    46    12     7   ar
    47    30    25    1
    48    33    34    1
@<TRIPOS>MOLECULE
*****
 42 48 0 0 0
SMALL
GASTEIGER

@<TRIPOS>ATOM
      1 C          62.3466   88.5783   11.3250 C.ar    1  UNL1        0.0508
      2 C          62.3168   90.0772   11.2760 C.ar    1  UNL1        0.0147
      3 C          62.9964   90.8763   12.3482 C.ar    1  UNL1        0.0019
      4 C          63.7057   90.1765   13.4694 C.ar    1  UNL1        0.0090
      5 C          63.7354   88.6776   13.5185 C.ar    1  UNL1        0.0307
      6 S          64.3512   87.7172   14.4923 S.2     1  UNL1       -0.0869
      7 C          64.0523   86.3245   14.0220 C.ar    1  UNL1        0.0295
      8 C          64.4056   84.9786   14.5819 C.ar    1  UNL1        0.0065
      9 C          63.9584   83.7323   13.8772 C.ar    1  UNL1        0.0005
     10 C          63.1578   83.8320   12.6126 C.ar    1  UNL1        0.0000
     11 C          62.8045   85.1779   12.0527 C.ar    1  UNL1        0.0006
     12 C          63.2517   86.4242   12.7575 C.ar    1  UNL1        0.0077
     13 C          63.0559   87.8785   12.4463 C.ar    1  UNL1        0.0200
     14 C          64.3852   90.9756   14.5416 C.ar    1  UNL1        0.0352
     15 C          63.9507   90.8357   15.9706 C.ar    1  UNL1        0.0031
     16 C          64.6302   91.6348   17.0428 C.ar    1  UNL1        0.0003
     17 C          65.7442   92.5738   16.6862 C.ar    1  UNL1        0.0062
     18 C          66.1787   92.7138   15.2573 C.ar    1  UNL1        0.0736
     19 C          67.2927   93.6528   14.9007 C.ar    1  UNL1        0.2030
     20 O          67.9722   94.4519   15.9729 O.2     1  UNL1       -0.2863
     21 C          67.7272   93.7928   13.4718 C.ar    1  UNL1        0.0955
     22 C          67.0476   92.9936   12.3995 C.ar    1  UNL1        0.2024
     23 O          65.9336   92.0546   12.7562 O.2     1  UNL1       -0.4398
     24 C          65.4991   91.9146   14.1850 C.ar    1  UNL1        0.1498
     25 N          67.4821   93.1335   10.9707 N.pl3   1  UNL1       -0.2742
     26 C          67.0983   94.3529   10.1860 C.3     1  UNL1        0.1257
     27 C          67.5328   94.4928    8.7572 C.3     1  UNL1        0.1637
     28 O          68.3511   93.4134    8.1130 O.3     1  UNL1       -0.3501
     29 C          68.7350   92.1940    8.8976 C.3     1  UNL1        0.1637
     30 C          68.3005   92.0541   10.3265 C.3     1  UNL1        0.1257
     31 C          60.1736   87.6389   10.2546 C.2     1  UNL1        0.2425
     32 O          59.3597   88.2976   11.3286 O.2     1  UNL1       -0.2733
     33 N          61.6670   87.7791   10.2528 N.am    1  UNL1       -0.2828
     34 H          62.2012   87.3467    9.5478 H       1  UNL1        0.1549
     35 C          59.4941   86.8398    9.1824 C.3     1  UNL1        0.1588
     36 C          62.7671   83.7715    5.1983 C.3     1  UNL1        0.0897
     37 N          61.9489   84.5386    6.1943 N.3     1  UNL1       -0.2691
     38 C          62.5925   85.0777    7.4374 C.3     1  UNL1        0.0897
     39 C          61.7742   85.8447    8.4334 C.3     1  UNL1        0.0900
     40 N          60.3123   86.0727    8.1864 N.3     1  UNL1       -0.2626
     41 C          59.6687   85.5336    6.9433 C.3     1  UNL1        0.0900
     42 C          60.4870   84.7666    5.9473 C.3     1  UNL1        0.0897
@<TRIPOS>BOND
     1    36    37    1
     2    37    38    1
     3    38    39    1
     4    39    40    1
     5    40    35    1
     6    35    31    1
     7    31    32    2
     8    31    33   am
     9    33     1    1
    10     1     2   ar
    11     2     3   ar
    12     3     4   ar
    13     4    14    1
    14    14    15   ar
    15    15    16   ar
    16    16    17   ar
    17    17    18   ar
    18    18    19   ar
    19    19    20    2
    20    19    21   ar
    21    21    22   ar
    22    22    25    1
    23    25    26    1
    24    26    27    1
    25    27    28    1
    26    28    29    1
    27    29    30    1
    28    22    23   ar
    29    23    24   ar
    30     4     5   ar
    31     5     6   ar
    32     6     7   ar
    33     7     8   ar
    34     8     9   ar
    35     9    10   ar
    36    10    11   ar
    37    11    12   ar
    38    12    13   ar
    39    40    41    1
    40    41    42    1
    41    42    37    1
    42    13     1   ar
    43    24    14   ar
    44    13     5   ar
    45    24    18   ar
    46    12     7   ar
    47    30    25    1
    48    33    34    1
