@<TRIPOS>MOLECULE
*****
 12 13 0 0 0
SMALL
GASTEIGER

@<TRIPOS>ATOM
      1 C          64.8117   85.7583   14.9423 C.ar    1  UNL1        0.0207
      2 C          63.8589   86.3154   15.9580 C.ar    1  UNL1        0.0989
      3 N          62.6054   85.5662   16.3007 N.ar    1  UNL1       -0.2423
      4 C          62.3047   84.2598   15.6277 C.ar    1  UNL1        0.1003
      5 C          63.2575   83.7027   14.6119 C.ar    1  UNL1        0.0363
      6 C          64.5110   84.4519   14.2693 C.ar    1  UNL1        0.0046
      7 C          62.9568   82.3963   13.9388 C.ar    1  UNL1        0.0787
      8 C          63.3003   82.0337   12.5244 C.ar    1  UNL1        0.1176
      9 N          62.8157   80.6365   12.2733 N.ar    1  UNL1       -0.2225
     10 C          62.1727   80.1356   13.5326 C.ar    1  UNL1        0.1750
     11 N          62.2599   81.2233   14.5619 N.ar    1  UNL1       -0.3348
     12 H          61.9195   81.1756   15.4845 H       1  UNL1        0.1675
@<TRIPOS>BOND
     1     1     2   ar
     2     2     3   ar
     3     3     4   ar
     4     4     5   ar
     5     5     7    1
     6     7     8   ar
     7     8     9   ar
     8     9    10   ar
     9    10    11   ar
    10     5     6   ar
    11     6     1   ar
    12    11     7   ar
    13    11    12    1
@<TRIPOS>MOLECULE
*****
 12 13 0 0 0
SMALL
GASTEIGER

@<TRIPOS>ATOM
      1 C          66.9175   91.5454   14.6024 C.ar    1  UNL1        0.0207
      2 C          65.4283   91.4345   14.7433 C.ar    1  UNL1        0.0989
      3 N          64.5372   91.7892   13.5900 N.ar    1  UNL1       -0.2423
      4 C          65.1354   92.2549   12.2956 C.ar    1  UNL1        0.1003
      5 C          66.6246   92.3658   12.1547 C.ar    1  UNL1        0.0363
      6 C          67.5157   92.0111   13.3080 C.ar    1  UNL1        0.0046
      7 C          67.2229   92.8314   10.8603 C.ar    1  UNL1        0.0787
      8 C          67.9263   91.9700    9.8537 C.ar    1  UNL1        0.1176
      9 N          68.3609   92.8463    8.7166 N.ar    1  UNL1       -0.2225
     10 C          67.9260   94.2495    9.0204 C.ar    1  UNL1        0.1750
     11 N          67.2227   94.2402   10.3452 N.ar    1  UNL1       -0.3348
     12 H          66.8299   95.0216   10.7974 H       1  UNL1        0.1675
@<TRIPOS>BOND
     1     1     2   ar
     2     2     3   ar
     3     3     4   ar
     4     4     5   ar
     5     5     7    1
     6     7     8   ar
     7     8     9   ar
     8     9    10   ar
     9    10    11   ar
    10     5     6   ar
    11     6     1   ar
    12    11     7   ar
    13    11    12    1
@<TRIPOS>MOLECULE
*****
 12 13 0 0 0
SMALL
GASTEIGER

@<TRIPOS>ATOM
      1 C          62.7349   85.4251    8.2190 C.ar    1  UNL1        0.0207
      2 C          61.7986   84.8875    7.1777 C.ar    1  UNL1        0.0989
      3 N          60.3992   85.4189    7.0813 N.ar    1  UNL1       -0.2423
      4 C          59.9361   86.4879    8.0261 C.ar    1  UNL1        0.1003
      5 C          60.8724   87.0255    9.0674 C.ar    1  UNL1        0.0363
      6 C          62.2718   86.4941    9.1638 C.ar    1  UNL1        0.0046
      7 C          60.4093   88.0945   10.0123 C.ar    1  UNL1        0.0787
      8 C          60.2977   89.5578    9.7017 C.ar    1  UNL1        0.1176
      9 N          59.7959   90.2556   10.9310 N.ar    1  UNL1       -0.2225
     10 C          59.5974   89.2236   12.0014 C.ar    1  UNL1        0.1750
     11 N          59.9764   87.8880   11.4335 N.ar    1  UNL1       -0.3348
     12 H          59.9464   87.0270   11.9100 H       1  UNL1        0.1675
@<TRIPOS>BOND
     1     1     2   ar
     2     2     3   ar
     3     3     4   ar
     4     4     5   ar
     5     5     7    1
     6     7     8   ar
     7     8     9   ar
     8     9    10   ar
     9    10    11   ar
    10     5     6   ar
    11     6     1   ar
    12    11     7   ar
    13    11    12    1
@<TRIPOS>MOLECULE
*****
 12 13 0 0 0
SMALL
GASTEIGER

@<TRIPOS>ATOM
      1 C          64.2618   82.8449   10.4564 C.ar    1  UNL1        0.0207
      2 C          64.3133   82.4582   11.9048 C.ar    1  UNL1        0.0989
      3 N          63.5557   83.2587   12.9222 N.ar    1  UNL1       -0.2423
      4 C          62.7466   84.4460   12.4913 C.ar    1  UNL1        0.1003
      5 C          62.6951   84.8327   11.0429 C.ar    1  UNL1        0.0363
      6 C          63.4527   84.0321   10.0255 C.ar    1  UNL1        0.0046
      7 C          61.8860   86.0200   10.6119 C.ar    1  UNL1        0.0787
      8 C          61.9537   86.6943    9.2737 C.ar    1  UNL1        0.1176
      9 N          60.9768   87.8325    9.2781 N.ar    1  UNL1       -0.2225
     10 C          60.3053   87.8617   10.6191 C.ar    1  UNL1        0.1750
     11 N          60.8672   86.7415   11.4434 N.ar    1  UNL1       -0.3348
     12 H          60.6121   86.5189   12.3679 H       1  UNL1        0.1675
@<TRIPOS>BOND
     1     1     2   ar
     2     2     3   ar
     3     3     4   ar
     4     4     5   ar
     5     5     7    1
     6     7     8   ar
     7     8     9   ar
     8     9    10   ar
     9    10    11   ar
    10     5     6   ar
    11     6     1   ar
    12    11     7   ar
    13    11    12    1
@<TRIPOS>MOLECULE
*****
 12 13 0 0 0
SMALL
GASTEIGER

@<TRIPOS>ATOM
      1 C          63.4340   84.4677    9.0657 C.ar    1  UNL1        0.0207
      2 C          62.5646   85.6506    8.7581 C.ar    1  UNL1        0.0989
      3 N          61.7464   86.2830    9.8447 N.ar    1  UNL1       -0.2423
      4 C          61.7976   85.7323   11.2390 C.ar    1  UNL1        0.1003
      5 C          62.6670   84.5494   11.5467 C.ar    1  UNL1        0.0363
      6 C          63.4852   83.9171   10.4600 C.ar    1  UNL1        0.0046
      7 C          62.7183   83.9987   12.9410 C.ar    1  UNL1        0.0787
      8 C          62.9535   82.5651   13.3147 C.ar    1  UNL1        0.1176
      9 N          62.9239   82.4653   14.8111 N.ar    1  UNL1       -0.2225
     10 C          62.6704   83.8372   15.3622 C.ar    1  UNL1        0.1750
     11 N          62.5434   84.7848   14.2065 N.ar    1  UNL1       -0.3348
     12 H          62.3747   85.7528   14.2677 H       1  UNL1        0.1675
@<TRIPOS>BOND
     1     1     2   ar
     2     2     3   ar
     3     3     4   ar
     4     4     5   ar
     5     5     7    1
     6     7     8   ar
     7     8     9   ar
     8     9    10   ar
     9    10    11   ar
    10     5     6   ar
    11     6     1   ar
    12    11     7   ar
    13    11    12    1
@<TRIPOS>MOLECULE
*****
 12 13 0 0 0
SMALL
GASTEIGER

@<TRIPOS>ATOM
      1 C          63.1290   85.0990    8.7597 C.ar    1  UNL1        0.0207
      2 C          62.2838   86.3042    9.0477 C.ar    1  UNL1        0.0989
      3 N          61.7115   86.5086   10.4191 N.ar    1  UNL1       -0.2423
      4 C          61.9844   85.5077   11.5025 C.ar    1  UNL1        0.1003
      5 C          62.8296   84.3025   11.2145 C.ar    1  UNL1        0.0363
      6 C          63.4019   84.0981    9.8431 C.ar    1  UNL1        0.0046
      7 C          63.1026   83.3016   12.2979 C.ar    1  UNL1        0.0787
      8 C          62.9494   83.5340   13.7719 C.ar    1  UNL1        0.1176
      9 N          63.3288   82.2687   14.4826 N.ar    1  UNL1       -0.2225
     10 C          63.7165   81.2543   13.4478 C.ar    1  UNL1        0.1750
     11 N          63.5767   81.8927   12.0976 N.ar    1  UNL1       -0.3348
     12 H          63.7634   81.4625   11.2320 H       1  UNL1        0.1675
@<TRIPOS>BOND
     1     1     2   ar
     2     2     3   ar
     3     3     4   ar
     4     4     5   ar
     5     5     7    1
     6     7     8   ar
     7     8     9   ar
     8     9    10   ar
     9    10    11   ar
    10     5     6   ar
    11     6     1   ar
    12    11     7   ar
    13    11    12    1
@<TRIPOS>MOLECULE
*****
 12 13 0 0 0
SMALL
GASTEIGER

@<TRIPOS>ATOM
      1 C          63.0058   84.4919   10.2751 C.ar    1  UNL1        0.0207
      2 C          63.9259   83.3404    9.9969 C.ar    1  UNL1        0.0989
      3 N          64.6485   82.6679   11.1263 N.ar    1  UNL1       -0.2423
      4 C          64.4511   83.1469   12.5339 C.ar    1  UNL1        0.1003
      5 C          63.5311   84.2984   12.8122 C.ar    1  UNL1        0.0363
      6 C          62.8084   84.9709   11.6828 C.ar    1  UNL1        0.0046
      7 C          63.3336   84.7775   14.2199 C.ar    1  UNL1        0.0787
      8 C          64.3101   85.5866   15.0210 C.ar    1  UNL1        0.1176
      9 N          63.7051   85.8408   16.3698 N.ar    1  UNL1       -0.2225
     10 C          62.3545   85.1888   16.4023 C.ar    1  UNL1        0.1750
     11 N          62.1250   84.5317   15.0735 N.ar    1  UNL1       -0.3348
     12 H          61.3220   84.0275   14.8083 H       1  UNL1        0.1675
@<TRIPOS>BOND
     1     1     2   ar
     2     2     3   ar
     3     3     4   ar
     4     4     5   ar
     5     5     7    1
     6     7     8   ar
     7     8     9   ar
     8     9    10   ar
     9    10    11   ar
    10     5     6   ar
    11     6     1   ar
    12    11     7   ar
    13    11    12    1
@<TRIPOS>MOLECULE
*****
 12 13 0 0 0
SMALL
GASTEIGER

@<TRIPOS>ATOM
      1 C          62.9298   85.4990    8.5206 C.ar    1  UNL1        0.0207
      2 C          63.2548   84.4346    9.5262 C.ar    1  UNL1        0.0989
      3 N          62.7967   84.5802   10.9471 N.ar    1  UNL1       -0.2423
      4 C          62.0136   85.7902   11.3624 C.ar    1  UNL1        0.1003
      5 C          61.6886   86.8547   10.3568 C.ar    1  UNL1        0.0363
      6 C          62.1468   86.7091    8.9359 C.ar    1  UNL1        0.0046
      7 C          60.9055   88.0648   10.7721 C.ar    1  UNL1        0.0787
      8 C          60.9494   89.4120   10.1139 C.ar    1  UNL1        0.1176
      9 N          60.0121   90.3200   10.8534 N.ar    1  UNL1       -0.2225
     10 C          59.3888   89.5339   11.9686 C.ar    1  UNL1        0.1750
     11 N          59.9410   88.1402   11.9184 N.ar    1  UNL1       -0.3348
     12 H          59.7108   87.4041   12.5303 H       1  UNL1        0.1675
@<TRIPOS>BOND
     1     1     2   ar
     2     2     3   ar
     3     3     4   ar
     4     4     5   ar
     5     5     7    1
     6     7     8   ar
     7     8     9   ar
     8     9    10   ar
     9    10    11   ar
    10     5     6   ar
    11     6     1   ar
    12    11     7   ar
    13    11    12    1
@<TRIPOS>MOLECULE
*****
 12 13 0 0 0
SMALL
GASTEIGER

@<TRIPOS>ATOM
      1 C          61.9072   80.9798   13.6350 C.ar    1  UNL1        0.0207
      2 C          62.7592   80.7953   12.4144 C.ar    1  UNL1        0.0989
      3 N          63.7453   81.8548   12.0209 N.ar    1  UNL1       -0.2423
      4 C          63.8795   83.0989   12.8481 C.ar    1  UNL1        0.1003
      5 C          63.0275   83.2834   14.0687 C.ar    1  UNL1        0.0363
      6 C          62.0413   82.2238   14.4622 C.ar    1  UNL1        0.0046
      7 C          63.1616   84.5275   14.8959 C.ar    1  UNL1        0.0787
      8 C          64.0741   85.6830   14.6090 C.ar    1  UNL1        0.1176
      9 N          63.8832   86.7042   15.6909 N.ar    1  UNL1       -0.2225
     10 C          62.8528   86.1798   16.6467 C.ar    1  UNL1        0.1750
     11 N          62.4068   84.8346   16.1553 N.ar    1  UNL1       -0.3348
     12 H          61.7364   84.2550   16.5841 H       1  UNL1        0.1675
@<TRIPOS>BOND
     1     1     2   ar
     2     2     3   ar
     3     3     4   ar
     4     4     5   ar
     5     5     7    1
     6     7     8   ar
     7     8     9   ar
     8     9    10   ar
     9    10    11   ar
    10     5     6   ar
    11     6     1   ar
    12    11     7   ar
    13    11    12    1
