@<TRIPOS>MOLECULE
*****
 41 45 0 0 0
SMALL
GASTEIGER

@<TRIPOS>ATOM
      1 C          63.1657   89.7715   12.6930 C.3     1  UNL1        0.0822
      2 C          60.8042   89.0509   11.8842 C.ar    1  UNL1        0.1351
      3 C          59.9358   88.2628   10.9489 C.ar    1  UNL1        0.0366
      4 C          60.5605   87.4070    9.8871 C.ar    1  UNL1        0.0030
      5 C          59.6922   86.6189    8.9518 C.ar    1  UNL1        0.0006
      6 C          60.3170   85.7632    7.8900 C.ar    1  UNL1        0.0067
      7 C          61.8101   85.6956    7.7635 C.ar    1  UNL1        0.0346
      8 BR         62.4348   84.8398    6.7017 Br      1  UNL1       -0.0490
      9 C          62.6785   86.4837    8.6988 C.ar    1  UNL1        0.0067
     10 C          62.0537   87.3395    9.7606 C.ar    1  UNL1        0.0004
     11 C          62.9220   88.1276   10.6959 C.ar    1  UNL1       -0.0009
     12 C          62.2973   88.9833   11.7577 C.ar    1  UNL1        0.0183
     13 C          58.9987   89.3993   13.7197 C.3     1  UNL1        0.2525
     14 O          60.1794   89.9067   12.9460 O.3     1  UNL1       -0.4717
     15 C          64.0824   90.8292   12.1534 C.ar    1  UNL1        0.0246
     16 C          63.8113   91.4435   10.8121 C.ar    1  UNL1        0.0200
     17 C          64.7279   92.5012   10.2725 C.ar    1  UNL1        0.1019
     18 N          65.9157   92.9444   11.0743 N.ar    1  UNL1       -0.2076
     19 C          66.1867   92.3301   12.4156 C.ar    1  UNL1        0.2598
     20 C          65.2701   91.2724   12.9551 C.ar    1  UNL1        0.1879
     21 O          67.3745   92.7733   13.2173 O.3     1  UNL1       -0.4541
     22 C          68.5976   91.9079   13.2870 C.3     1  UNL1        0.2543
     23 O          65.5411   90.6581   14.2964 O.3     1  UNL1       -0.4670
     24 C          65.7751   91.5359   15.4900 C.3     1  UNL1        0.2527
     25 C          63.1174   89.5020   14.1678 C.3     1  UNL1        0.1475
     26 O          62.8036   90.9467   14.4215 O.3     1  UNL1       -0.3789
     27 H          63.5848   91.3871   14.7912 H       1  UNL1        0.2108
     28 C          63.4312   88.0574   13.9140 C.ar    1  UNL1        0.1474
     29 C          64.5310   87.2674   14.5594 C.ar    1  UNL1        0.0384
     30 C          64.4797   85.8707   14.0146 C.ar    1  UNL1        0.0373
     31 C          65.3172   84.6562   14.2859 C.ar    1  UNL1        0.0031
     32 C          65.0232   83.3684   13.5751 C.ar    1  UNL1        0.0002
     33 C          63.8917   83.2952   12.5931 C.ar    1  UNL1        0.0031
     34 C          63.0542   84.5097   12.3217 C.ar    1  UNL1        0.0375
     35 C          63.3482   85.7975   13.0325 C.ar    1  UNL1        0.1449
     36 O          62.7002   87.1488   12.9704 O.2     1  UNL1       -0.4554
     37 C          63.0691   89.2325   15.6425 C.3     1  UNL1        0.0522
     38 C          61.9051   88.4926   16.2320 C.3     1  UNL1        0.0751
     39 N          62.1345   87.2291   17.0073 N.3     1  UNL1       -0.2702
     40 C          62.8547   87.2763   18.3223 C.3     1  UNL1        0.0897
     41 C          61.6437   85.9184   16.4677 C.3     1  UNL1        0.0897
@<TRIPOS>BOND
     1    13    14    1
     2    14     2    1
     3     2     3   ar
     4     3     4   ar
     5     4     5   ar
     6     5     6   ar
     7     6     7   ar
     8     7     8    1
     9     7     9   ar
    10     9    10   ar
    11    10    11   ar
    12    11    12   ar
    13     1    12    1
    14     1    15    1
    15    15    16   ar
    16    16    17   ar
    17    17    18   ar
    18    18    19   ar
    19    19    21    1
    20    21    22    1
    21    19    20   ar
    22    20    23    1
    23    23    24    1
    24     1    25    1
    25    25    26    1
    26    25    37    1
    27    37    38    1
    28    38    39    1
    29    39    40    1
    30    39    41    1
    31    25    28    1
    32    28    29   ar
    33    29    30   ar
    34    30    31   ar
    35    31    32   ar
    36    32    33   ar
    37    33    34   ar
    38    34    35   ar
    39    35    36   ar
    40    12     2   ar
    41    20    15   ar
    42    36    28   ar
    43    10     4   ar
    44    35    30   ar
    45    26    27    1
@<TRIPOS>MOLECULE
*****
 41 45 0 0 0
SMALL
GASTEIGER

@<TRIPOS>ATOM
      1 C          62.4178   89.2997   12.4195 C.3     1  UNL1        0.0822
      2 C          63.5762   87.6692   14.0778 C.ar    1  UNL1        0.1351
      3 C          64.0885   86.2984   14.4075 C.ar    1  UNL1        0.0366
      4 C          63.9548   85.1875   13.4086 C.ar    1  UNL1        0.0030
      5 C          64.4671   83.8168   13.7382 C.ar    1  UNL1        0.0006
      6 C          64.3333   82.7058   12.7392 C.ar    1  UNL1        0.0067
      7 C          63.6873   82.9656   11.4107 C.ar    1  UNL1        0.0346
      8 BR         63.5536   81.8546   10.4117 Br      1  UNL1       -0.0490
      9 C          63.1750   84.3363   11.0810 C.ar    1  UNL1        0.0067
     10 C          63.3087   85.4473   12.0799 C.ar    1  UNL1        0.0004
     11 C          62.7964   86.8180   11.7503 C.ar    1  UNL1       -0.0009
     12 C          62.9302   87.9289   12.7492 C.ar    1  UNL1        0.0183
     13 C          63.2303   88.5847   16.4846 C.3     1  UNL1        0.2525
     14 O          63.7099   88.7802   15.0768 O.3     1  UNL1       -0.4717
     15 C          63.3468   90.3308   11.8506 C.ar    1  UNL1        0.0246
     16 C          63.5501   90.4201   10.3670 C.ar    1  UNL1        0.0200
     17 C          64.4791   91.4512    9.7980 C.ar    1  UNL1        0.1019
     18 N          65.2049   92.3930   10.7126 N.ar    1  UNL1       -0.2076
     19 C          65.0017   92.3036   12.1960 C.ar    1  UNL1        0.2598
     20 C          64.0726   91.2725   12.7650 C.ar    1  UNL1        0.1879
     21 O          65.7275   93.2454   13.1105 O.3     1  UNL1       -0.4541
     22 C          66.3911   94.4697   12.5531 C.3     1  UNL1        0.2543
     23 O          63.8694   91.1832   14.2485 O.3     1  UNL1       -0.4670
     24 C          64.9998   91.5036   15.1810 C.3     1  UNL1        0.2527
     25 C          60.9765   89.6393   12.6589 C.3     1  UNL1        0.1475
     26 O          61.3208   90.1321   14.0331 O.3     1  UNL1       -0.3789
     27 H          61.0100   89.4929   14.6931 H       1  UNL1        0.2108
     28 C          60.6322   89.1465   11.2846 C.ar    1  UNL1        0.1474
     29 C          60.3541   90.0028   10.0848 C.ar    1  UNL1        0.0384
     30 C          60.0556   89.0963    8.9275 C.ar    1  UNL1        0.0373
     31 C          59.7106   89.3777    7.4951 C.ar    1  UNL1        0.0031
     32 C          59.4593   88.2426    6.5473 C.ar    1  UNL1        0.0002
     33 C          59.5529   86.8262    7.0318 C.ar    1  UNL1        0.0031
     34 C          59.8979   86.5447    8.4642 C.ar    1  UNL1        0.0375
     35 C          60.1492   87.6797    9.4121 C.ar    1  UNL1        0.1449
     36 O          60.5056   87.7108   10.8688 O.2     1  UNL1       -0.4554
     37 C          59.5352   89.9789   12.8982 C.3     1  UNL1        0.0522
     38 C          58.4607   89.0097   12.5030 C.3     1  UNL1        0.0751
     39 N          57.6551   88.3118   13.5585 N.3     1  UNL1       -0.2702
     40 C          56.2100   87.9947   13.3117 C.3     1  UNL1        0.0897
     41 C          58.2947   87.9310   14.8608 C.3     1  UNL1        0.0897
@<TRIPOS>BOND
     1    13    14    1
     2    14     2    1
     3     2     3   ar
     4     3     4   ar
     5     4     5   ar
     6     5     6   ar
     7     6     7   ar
     8     7     8    1
     9     7     9   ar
    10     9    10   ar
    11    10    11   ar
    12    11    12   ar
    13     1    12    1
    14     1    15    1
    15    15    16   ar
    16    16    17   ar
    17    17    18   ar
    18    18    19   ar
    19    19    21    1
    20    21    22    1
    21    19    20   ar
    22    20    23    1
    23    23    24    1
    24     1    25    1
    25    25    26    1
    26    25    37    1
    27    37    38    1
    28    38    39    1
    29    39    40    1
    30    39    41    1
    31    25    28    1
    32    28    29   ar
    33    29    30   ar
    34    30    31   ar
    35    31    32   ar
    36    32    33   ar
    37    33    34   ar
    38    34    35   ar
    39    35    36   ar
    40    12     2   ar
    41    20    15   ar
    42    36    28   ar
    43    10     4   ar
    44    35    30   ar
    45    26    27    1
@<TRIPOS>MOLECULE
*****
 41 45 0 0 0
SMALL
GASTEIGER

@<TRIPOS>ATOM
      1 C          62.6887   88.7852   12.5177 C.3     1  UNL1        0.0822
      2 C          63.6606   87.1193   14.2584 C.ar    1  UNL1        0.1351
      3 C          64.0511   85.7230   14.6430 C.ar    1  UNL1        0.0366
      4 C          63.8602   84.5963   13.6713 C.ar    1  UNL1        0.0030
      5 C          64.2507   83.2000   14.0558 C.ar    1  UNL1        0.0006
      6 C          64.0598   82.0733   13.0841 C.ar    1  UNL1        0.0067
      7 C          63.4784   82.3429   11.7279 C.ar    1  UNL1        0.0346
      8 BR         63.2875   81.2163   10.7562 Br      1  UNL1       -0.0490
      9 C          63.0879   83.7393   11.3434 C.ar    1  UNL1        0.0067
     10 C          63.2788   84.8660   12.3150 C.ar    1  UNL1        0.0004
     11 C          62.8883   86.2622   11.9306 C.ar    1  UNL1       -0.0009
     12 C          63.0792   87.3889   12.9022 C.ar    1  UNL1        0.0183
     13 C          63.1811   88.2014   16.5713 C.3     1  UNL1        0.2525
     14 O          63.8515   88.2460   15.2301 O.3     1  UNL1       -0.4717
     15 C          63.7010   89.8905   12.5772 C.ar    1  UNL1        0.0246
     16 C          64.4219   90.1789   13.8607 C.ar    1  UNL1        0.0200
     17 C          65.4343   91.2841   13.9203 C.ar    1  UNL1        0.1019
     18 N          65.7258   92.1009   12.6963 N.ar    1  UNL1       -0.2076
     19 C          65.0050   91.8125   11.4130 C.ar    1  UNL1        0.2598
     20 C          63.9926   90.7072   11.3534 C.ar    1  UNL1        0.1879
     21 O          65.2966   92.6292   10.1891 O.3     1  UNL1       -0.4541
     22 C          66.4514   93.5865   10.1838 C.3     1  UNL1        0.2543
     23 O          63.2718   90.4188   10.0700 O.3     1  UNL1       -0.4670
     24 C          62.1640   91.3210    9.6128 C.3     1  UNL1        0.2527
     25 C          61.2858   89.0763   12.0736 C.3     1  UNL1        0.1475
     26 O          61.1155   90.0178   13.2288 O.3     1  UNL1       -0.3789
     27 H          60.5423   89.6098   13.8966 H       1  UNL1        0.2108
     28 C          61.4561   88.1348   10.9184 C.ar    1  UNL1        0.1474
     29 C          60.3528   87.5517   10.0861 C.ar    1  UNL1        0.0384
     30 C          60.9746   86.6676    9.0459 C.ar    1  UNL1        0.0373
     31 C          60.3784   85.8339    7.9507 C.ar    1  UNL1        0.0031
     32 C          61.2697   85.0369    7.0450 C.ar    1  UNL1        0.0002
     33 C          62.7572   85.0735    7.2345 C.ar    1  UNL1        0.0031
     34 C          63.3534   85.9073    8.3297 C.ar    1  UNL1        0.0375
     35 C          62.4621   86.7043    9.2354 C.ar    1  UNL1        0.1449
     36 O          62.7598   87.6110   10.3926 O.2     1  UNL1       -0.4554
     37 C          59.8830   89.3674   11.6296 C.3     1  UNL1        0.0522
     38 C          58.8651   89.8430   12.6234 C.3     1  UNL1        0.0751
     39 N          58.2277   88.8684   13.5690 N.3     1  UNL1       -0.2702
     40 C          58.9103   88.5184   14.8581 C.3     1  UNL1        0.0897
     41 C          56.9079   88.2439   13.2256 C.3     1  UNL1        0.0897
@<TRIPOS>BOND
     1    13    14    1
     2    14     2    1
     3     2     3   ar
     4     3     4   ar
     5     4     5   ar
     6     5     6   ar
     7     6     7   ar
     8     7     8    1
     9     7     9   ar
    10     9    10   ar
    11    10    11   ar
    12    11    12   ar
    13     1    12    1
    14     1    15    1
    15    15    16   ar
    16    16    17   ar
    17    17    18   ar
    18    18    19   ar
    19    19    21    1
    20    21    22    1
    21    19    20   ar
    22    20    23    1
    23    23    24    1
    24     1    25    1
    25    25    26    1
    26    25    37    1
    27    37    38    1
    28    38    39    1
    29    39    40    1
    30    39    41    1
    31    25    28    1
    32    28    29   ar
    33    29    30   ar
    34    30    31   ar
    35    31    32   ar
    36    32    33   ar
    37    33    34   ar
    38    34    35   ar
    39    35    36   ar
    40    12     2   ar
    41    20    15   ar
    42    36    28   ar
    43    10     4   ar
    44    35    30   ar
    45    26    27    1
@<TRIPOS>MOLECULE
*****
 41 45 0 0 0
SMALL
GASTEIGER

@<TRIPOS>ATOM
      1 C          63.0134   88.2305   12.9552 C.3     1  UNL1        0.0822
      2 C          63.6508   90.3064   11.5288 C.ar    1  UNL1        0.1351
      3 C          64.4036   91.5946   11.3737 C.ar    1  UNL1        0.0366
      4 C          65.2718   92.0949   12.4898 C.ar    1  UNL1        0.0030
      5 C          66.0246   93.3830   12.3348 C.ar    1  UNL1        0.0006
      6 C          66.8928   93.8834   13.4509 C.ar    1  UNL1        0.0067
      7 C          67.0082   93.0957   14.7222 C.ar    1  UNL1        0.0346
      8 BR         67.8764   93.5961   15.8384 Br      1  UNL1       -0.0490
      9 C          66.2554   91.8075   14.8773 C.ar    1  UNL1        0.0067
     10 C          65.3872   91.3072   13.7611 C.ar    1  UNL1        0.0004
     11 C          64.6344   90.0191   13.9162 C.ar    1  UNL1       -0.0009
     12 C          63.7662   89.5187   12.8000 C.ar    1  UNL1        0.0183
     13 C          62.3115   90.7513    9.3474 C.3     1  UNL1        0.2525
     14 O          62.7826   89.8060   10.4126 O.3     1  UNL1       -0.4717
     15 C          63.5604   87.1431   13.8317 C.ar    1  UNL1        0.0246
     16 C          64.3781   86.0372   13.2329 C.ar    1  UNL1        0.0200
     17 C          64.9251   84.9498   14.1094 C.ar    1  UNL1        0.1019
     18 N          64.6544   84.9682   15.5847 N.ar    1  UNL1       -0.2076
     19 C          63.8367   86.0741   16.1834 C.ar    1  UNL1        0.2598
     20 C          63.2897   87.1615   15.3069 C.ar    1  UNL1        0.1879
     21 O          63.5661   86.0925   17.6587 O.3     1  UNL1       -0.4541
     22 C          62.2406   86.5716   18.1721 C.3     1  UNL1        0.2543
     23 O          62.4721   88.2673   15.9056 O.3     1  UNL1       -0.4670
     24 C          63.1524   89.4428   16.5426 C.3     1  UNL1        0.2527
     25 C          61.7137   88.0299   12.2338 C.3     1  UNL1        0.1475
     26 O          61.2848   89.4139   12.6216 O.3     1  UNL1       -0.3789
     27 H          60.6089   89.3605   13.3153 H       1  UNL1        0.2108
     28 C          62.1426   86.6458   11.8460 C.ar    1  UNL1        0.1474
     29 C          62.8938   86.2714   10.6028 C.ar    1  UNL1        0.0384
     30 C          63.1111   84.7873   10.6218 C.ar    1  UNL1        0.0373
     31 C          63.7910   83.8600    9.6586 C.ar    1  UNL1        0.0031
     32 C          63.8540   82.3900    9.9502 C.ar    1  UNL1        0.0002
     33 C          63.2371   81.8472   11.2051 C.ar    1  UNL1        0.0031
     34 C          62.5572   82.7745   12.1684 C.ar    1  UNL1        0.0375
     35 C          62.4942   84.2445   11.8768 C.ar    1  UNL1        0.1449
     36 O          61.8956   85.3931   12.6333 O.2     1  UNL1       -0.4554
     37 C          60.4140   87.8292   11.5125 C.3     1  UNL1        0.0522
     38 C          60.0716   88.6875   10.3309 C.3     1  UNL1        0.0751
     39 N          59.8815   88.0631    8.9803 N.3     1  UNL1       -0.2702
     40 C          59.6393   88.9303    7.7806 C.3     1  UNL1        0.0897
     41 C          59.9337   86.5717    8.8294 C.3     1  UNL1        0.0897
@<TRIPOS>BOND
     1    13    14    1
     2    14     2    1
     3     2     3   ar
     4     3     4   ar
     5     4     5   ar
     6     5     6   ar
     7     6     7   ar
     8     7     8    1
     9     7     9   ar
    10     9    10   ar
    11    10    11   ar
    12    11    12   ar
    13     1    12    1
    14     1    15    1
    15    15    16   ar
    16    16    17   ar
    17    17    18   ar
    18    18    19   ar
    19    19    21    1
    20    21    22    1
    21    19    20   ar
    22    20    23    1
    23    23    24    1
    24     1    25    1
    25    25    26    1
    26    25    37    1
    27    37    38    1
    28    38    39    1
    29    39    40    1
    30    39    41    1
    31    25    28    1
    32    28    29   ar
    33    29    30   ar
    34    30    31   ar
    35    31    32   ar
    36    32    33   ar
    37    33    34   ar
    38    34    35   ar
    39    35    36   ar
    40    12     2   ar
    41    20    15   ar
    42    36    28   ar
    43    10     4   ar
    44    35    30   ar
    45    26    27    1
@<TRIPOS>MOLECULE
*****
 41 45 0 0 0
SMALL
GASTEIGER

@<TRIPOS>ATOM
      1 C          63.3807   89.5436   13.3925 C.3     1  UNL1        0.0822
      2 C          61.0196   89.1182   12.3953 C.ar    1  UNL1        0.1351
      3 C          60.1427   88.4797   11.3591 C.ar    1  UNL1        0.0366
      4 C          60.7502   87.6283   10.2839 C.ar    1  UNL1        0.0030
      5 C          59.8735   86.9899    9.2477 C.ar    1  UNL1        0.0006
      6 C          60.4810   86.1384    8.1726 C.ar    1  UNL1        0.0067
      7 C          61.9653   85.9254    8.1335 C.ar    1  UNL1        0.0346
      8 BR         62.5728   85.0740    7.0584 Br      1  UNL1       -0.0490
      9 C          62.8421   86.5639    9.1697 C.ar    1  UNL1        0.0067
     10 C          62.2346   87.4153   10.2449 C.ar    1  UNL1        0.0004
     11 C          63.1113   88.0537   11.2811 C.ar    1  UNL1       -0.0009
     12 C          62.5038   88.9052   12.3563 C.ar    1  UNL1        0.0183
     13 C          59.3954   89.3846   14.4056 C.3     1  UNL1        0.2525
     14 O          60.4121   89.9696   13.4705 O.3     1  UNL1       -0.4717
     15 C          64.4007   90.5654   12.9855 C.ar    1  UNL1        0.0246
     16 C          65.7015   90.6628   13.7261 C.ar    1  UNL1        0.0200
     17 C          66.7215   91.6846   13.3191 C.ar    1  UNL1        0.1019
     18 N          66.4406   92.6089   12.1715 N.ar    1  UNL1       -0.2076
     19 C          65.1399   92.5114   11.4310 C.ar    1  UNL1        0.2598
     20 C          64.1199   91.4896   11.8379 C.ar    1  UNL1        0.1879
     21 O          64.8591   93.4356   10.2834 O.3     1  UNL1       -0.4541
     22 C          65.5052   94.7885   10.2346 C.3     1  UNL1        0.2543
     23 O          62.8191   91.3921   11.0974 O.3     1  UNL1       -0.4670
     24 C          62.8146   91.1255    9.6212 C.3     1  UNL1        0.2527
     25 C          63.2375   89.1603   14.8355 C.3     1  UNL1        0.1475
     26 O          62.9167   90.5840   15.1819 O.3     1  UNL1       -0.3789
     27 H          63.6754   90.9858   15.6333 H       1  UNL1        0.2108
     28 C          63.5582   87.7365   14.4892 C.ar    1  UNL1        0.1474
     29 C          64.7888   86.9845   14.9017 C.ar    1  UNL1        0.0384
     30 C          64.6959   85.5979   14.3369 C.ar    1  UNL1        0.0373
     31 C          65.6176   84.4174   14.4178 C.ar    1  UNL1        0.0031
     32 C          65.2514   83.1319   13.7370 C.ar    1  UNL1        0.0002
     33 C          63.9634   83.0270   12.9754 C.ar    1  UNL1        0.0031
     34 C          63.0416   84.2076   12.8946 C.ar    1  UNL1        0.0375
     35 C          63.4078   85.4931   13.5753 C.ar    1  UNL1        0.1449
     36 O          62.7047   86.8147   13.6694 O.2     1  UNL1       -0.4554
     37 C          63.0943   88.7770   16.2786 C.3     1  UNL1        0.0522
     38 C          61.9639   87.8907   16.7106 C.3     1  UNL1        0.0751
     39 N          62.2488   86.6245   17.4628 N.3     1  UNL1       -0.2702
     40 C          62.7208   86.6874   18.8853 C.3     1  UNL1        0.0897
     41 C          62.0618   85.2957   16.7927 C.3     1  UNL1        0.0897
@<TRIPOS>BOND
     1    13    14    1
     2    14     2    1
     3     2     3   ar
     4     3     4   ar
     5     4     5   ar
     6     5     6   ar
     7     6     7   ar
     8     7     8    1
     9     7     9   ar
    10     9    10   ar
    11    10    11   ar
    12    11    12   ar
    13     1    12    1
    14     1    15    1
    15    15    16   ar
    16    16    17   ar
    17    17    18   ar
    18    18    19   ar
    19    19    21    1
    20    21    22    1
    21    19    20   ar
    22    20    23    1
    23    23    24    1
    24     1    25    1
    25    25    26    1
    26    25    37    1
    27    37    38    1
    28    38    39    1
    29    39    40    1
    30    39    41    1
    31    25    28    1
    32    28    29   ar
    33    29    30   ar
    34    30    31   ar
    35    31    32   ar
    36    32    33   ar
    37    33    34   ar
    38    34    35   ar
    39    35    36   ar
    40    12     2   ar
    41    20    15   ar
    42    36    28   ar
    43    10     4   ar
    44    35    30   ar
    45    26    27    1
@<TRIPOS>MOLECULE
*****
 41 45 0 0 0
SMALL
GASTEIGER

@<TRIPOS>ATOM
      1 C          63.5339   89.5040   13.1990 C.3     1  UNL1        0.0822
      2 C          63.9483   90.8416   15.3874 C.ar    1  UNL1        0.1351
      3 C          64.8486   91.6771   16.2486 C.ar    1  UNL1        0.0366
      4 C          66.2348   92.0105   15.7824 C.ar    1  UNL1        0.0030
      5 C          67.1350   92.8459   16.6434 C.ar    1  UNL1        0.0006
      6 C          68.5212   93.1792   16.1772 C.ar    1  UNL1        0.0067
      7 C          69.0072   92.6771   14.8499 C.ar    1  UNL1        0.0346
      8 BR         70.3934   93.0104   14.3837 Br      1  UNL1       -0.0490
      9 C          68.1069   91.8416   13.9888 C.ar    1  UNL1        0.0067
     10 C          66.7207   91.5083   14.4550 C.ar    1  UNL1        0.0004
     11 C          65.8204   90.6728   13.5940 C.ar    1  UNL1       -0.0009
     12 C          64.4342   90.3395   14.0602 C.ar    1  UNL1        0.0183
     13 C          62.3221   89.2728   16.6698 C.3     1  UNL1        0.2525
     14 O          62.5621   90.5083   15.8537 O.3     1  UNL1       -0.4717
     15 C          63.6187   88.0075   13.2559 C.ar    1  UNL1        0.0246
     16 C          64.1630   87.3331   14.4804 C.ar    1  UNL1        0.0200
     17 C          64.2478   85.8366   14.5373 C.ar    1  UNL1        0.1019
     18 N          63.7883   85.0144   13.3698 N.ar    1  UNL1       -0.2076
     19 C          63.2441   85.6888   12.1454 C.ar    1  UNL1        0.2598
     20 C          63.1593   87.1853   12.0885 C.ar    1  UNL1        0.1879
     21 O          62.7846   84.8666   10.9780 O.3     1  UNL1       -0.4541
     22 C          63.5720   83.6630   10.5522 C.3     1  UNL1        0.2543
     23 O          62.6150   87.8596   10.8642 O.3     1  UNL1       -0.4670
     24 C          62.6520   87.1547    9.5406 C.3     1  UNL1        0.2527
     25 C          62.5489   90.1650   12.2811 C.3     1  UNL1        0.1475
     26 O          61.4833   89.2141   12.7397 O.3     1  UNL1       -0.3789
     27 H          61.3055   88.5660   12.0403 H       1  UNL1        0.2108
     28 C          63.6144   91.1159   11.8224 C.ar    1  UNL1        0.1474
     29 C          64.4655   90.9619   10.5968 C.ar    1  UNL1        0.0384
     30 C          65.3931   92.1386   10.5257 C.ar    1  UNL1        0.0373
     31 C          66.4548   92.5215    9.5377 C.ar    1  UNL1        0.0031
     32 C          67.2387   93.7856    9.7313 C.ar    1  UNL1        0.0002
     33 C          66.9610   94.6668   10.9130 C.ar    1  UNL1        0.0031
     34 C          65.8993   94.2839   11.9011 C.ar    1  UNL1        0.0375
     35 C          65.1153   93.0198   11.7074 C.ar    1  UNL1        0.1449
     36 O          64.0161   92.3878   12.5088 O.2     1  UNL1       -0.4554
     37 C          61.5639   90.8260   11.3631 C.3     1  UNL1        0.0522
     38 C          60.1971   90.2360   11.1793 C.3     1  UNL1        0.0751
     39 N          59.9381   89.2800   10.0527 N.3     1  UNL1       -0.2702
     40 C          60.2370   89.6869    8.6402 C.3     1  UNL1        0.0897
     41 C          59.3804   87.9173   10.3387 C.3     1  UNL1        0.0897
@<TRIPOS>BOND
     1    13    14    1
     2    14     2    1
     3     2     3   ar
     4     3     4   ar
     5     4     5   ar
     6     5     6   ar
     7     6     7   ar
     8     7     8    1
     9     7     9   ar
    10     9    10   ar
    11    10    11   ar
    12    11    12   ar
    13     1    12    1
    14     1    15    1
    15    15    16   ar
    16    16    17   ar
    17    17    18   ar
    18    18    19   ar
    19    19    21    1
    20    21    22    1
    21    19    20   ar
    22    20    23    1
    23    23    24    1
    24     1    25    1
    25    25    26    1
    26    25    37    1
    27    37    38    1
    28    38    39    1
    29    39    40    1
    30    39    41    1
    31    25    28    1
    32    28    29   ar
    33    29    30   ar
    34    30    31   ar
    35    31    32   ar
    36    32    33   ar
    37    33    34   ar
    38    34    35   ar
    39    35    36   ar
    40    12     2   ar
    41    20    15   ar
    42    36    28   ar
    43    10     4   ar
    44    35    30   ar
    45    26    27    1
@<TRIPOS>MOLECULE
*****
 41 45 0 0 0
SMALL
GASTEIGER

@<TRIPOS>ATOM
      1 C          62.2101   89.1681   11.8900 C.3     1  UNL1        0.0822
      2 C          64.0115   90.1304   13.4960 C.ar    1  UNL1        0.1351
      3 C          65.1399   91.0825   13.7614 C.ar    1  UNL1        0.0366
      4 C          65.5951   92.0243   12.6864 C.ar    1  UNL1        0.0030
      5 C          66.7234   92.9763   12.9518 C.ar    1  UNL1        0.0006
      6 C          67.1787   93.9181   11.8767 C.ar    1  UNL1        0.0067
      7 C          66.5056   93.9079   10.5363 C.ar    1  UNL1        0.0346
      8 BR         66.9609   94.8497    9.4612 Br      1  UNL1       -0.0490
      9 C          65.3773   92.9558   10.2708 C.ar    1  UNL1        0.0067
     10 C          64.9220   92.0140   11.3459 C.ar    1  UNL1        0.0004
     11 C          63.7937   91.0620   11.0805 C.ar    1  UNL1       -0.0009
     12 C          63.3385   90.1202   12.1555 C.ar    1  UNL1        0.0183
     13 C          63.4780   89.6563   15.9941 C.3     1  UNL1        0.2525
     14 O          63.5562   89.1886   14.5710 O.3     1  UNL1       -0.4717
     15 C          62.4906   87.8197   11.2958 C.ar    1  UNL1        0.0246
     16 C          62.4423   87.6307    9.8085 C.ar    1  UNL1        0.0200
     17 C          62.7228   86.2823    9.2143 C.ar    1  UNL1        0.1019
     18 N          63.0517   85.1228   10.1074 N.ar    1  UNL1       -0.2076
     19 C          63.1000   85.3118   11.5947 C.ar    1  UNL1        0.2598
     20 C          62.8195   86.6602   12.1889 C.ar    1  UNL1        0.1879
     21 O          63.4288   84.1524   12.4877 O.3     1  UNL1       -0.4541
     22 C          64.3466   83.0693   12.0033 C.3     1  UNL1        0.2543
     23 O          62.8678   86.8492   13.6761 O.3     1  UNL1       -0.4670
     24 C          63.9907   86.2527   14.4719 C.3     1  UNL1        0.2527
     25 C          60.8013   89.5644   12.2188 C.3     1  UNL1        0.1475
     26 O          61.2109   89.8468   13.6338 O.3     1  UNL1       -0.3789
     27 H          60.8733   89.1466   14.2140 H       1  UNL1        0.2108
     28 C          60.3916   89.2820   10.8037 C.ar    1  UNL1        0.1474
     29 C          60.4481   90.2504    9.6595 C.ar    1  UNL1        0.0384
     30 C          59.9449   89.5485    8.4330 C.ar    1  UNL1        0.0373
     31 C          59.7739   90.0049    7.0144 C.ar    1  UNL1        0.0031
     32 C          59.2354   89.0593    5.9820 C.ar    1  UNL1        0.0002
     33 C          58.8680   87.6572    6.3682 C.ar    1  UNL1        0.0031
     34 C          59.0390   87.2007    7.7868 C.ar    1  UNL1        0.0375
     35 C          59.5775   88.1463    8.8192 C.ar    1  UNL1        0.1449
     36 O          59.8536   87.9817   10.2844 O.2     1  UNL1       -0.4554
     37 C          59.3925   89.9608   12.5475 C.3     1  UNL1        0.0522
     38 C          58.2681   88.9956   12.3146 C.3     1  UNL1        0.0751
     39 N          57.5775   88.3531   13.4810 N.3     1  UNL1       -0.2702
     40 C          56.1385   87.9447   13.3685 C.3     1  UNL1        0.0897
     41 C          58.3258   88.1190   14.7597 C.3     1  UNL1        0.0897
@<TRIPOS>BOND
     1    13    14    1
     2    14     2    1
     3     2     3   ar
     4     3     4   ar
     5     4     5   ar
     6     5     6   ar
     7     6     7   ar
     8     7     8    1
     9     7     9   ar
    10     9    10   ar
    11    10    11   ar
    12    11    12   ar
    13     1    12    1
    14     1    15    1
    15    15    16   ar
    16    16    17   ar
    17    17    18   ar
    18    18    19   ar
    19    19    21    1
    20    21    22    1
    21    19    20   ar
    22    20    23    1
    23    23    24    1
    24     1    25    1
    25    25    26    1
    26    25    37    1
    27    37    38    1
    28    38    39    1
    29    39    40    1
    30    39    41    1
    31    25    28    1
    32    28    29   ar
    33    29    30   ar
    34    30    31   ar
    35    31    32   ar
    36    32    33   ar
    37    33    34   ar
    38    34    35   ar
    39    35    36   ar
    40    12     2   ar
    41    20    15   ar
    42    36    28   ar
    43    10     4   ar
    44    35    30   ar
    45    26    27    1
@<TRIPOS>MOLECULE
*****
 41 45 0 0 0
SMALL
GASTEIGER

@<TRIPOS>ATOM
      1 C          63.2140   90.2384   12.4002 C.3     1  UNL1        0.0822
      2 C          60.9194   89.7308   11.2924 C.ar    1  UNL1        0.1351
      3 C          60.0887   88.9319   10.3322 C.ar    1  UNL1        0.0366
      4 C          60.7221   87.8417    9.5197 C.ar    1  UNL1        0.0030
      5 C          59.8916   87.0428    8.5595 C.ar    1  UNL1        0.0006
      6 C          60.5250   85.9526    7.7470 C.ar    1  UNL1        0.0067
      7 C          61.9890   85.6613    7.8946 C.ar    1  UNL1        0.0346
      8 BR         62.6224   84.5711    7.0821 Br      1  UNL1       -0.0490
      9 C          62.8196   86.4602    8.8548 C.ar    1  UNL1        0.0067
     10 C          62.1862   87.5504    9.6673 C.ar    1  UNL1        0.0004
     11 C          63.0168   88.3493   10.6274 C.ar    1  UNL1       -0.0009
     12 C          62.3833   89.4395   11.4400 C.ar    1  UNL1        0.0183
     13 C          58.8904   91.2744   11.7933 C.3     1  UNL1        0.2525
     14 O          60.2859   90.8210   12.1049 O.3     1  UNL1       -0.4717
     15 C          64.2495   91.1922   11.8824 C.ar    1  UNL1        0.0246
     16 C          64.0018   91.9514   10.6126 C.ar    1  UNL1        0.0200
     17 C          65.0373   92.9051   10.0949 C.ar    1  UNL1        0.1019
     18 N          66.3205   93.0997   10.8470 N.ar    1  UNL1       -0.2076
     19 C          66.5682   92.3405   12.1167 C.ar    1  UNL1        0.2598
     20 C          65.5327   91.3867   12.6344 C.ar    1  UNL1        0.1879
     21 O          67.8514   92.5351   12.8687 O.3     1  UNL1       -0.4541
     22 C          69.0442   91.6834   12.5496 C.3     1  UNL1        0.2543
     23 O          65.7803   90.6275   13.9041 O.3     1  UNL1       -0.4670
     24 C          66.9524   90.9791   14.7718 C.3     1  UNL1        0.2527
     25 C          63.0091   90.0835   13.8780 C.3     1  UNL1        0.1475
     26 O          62.7053   91.5481   13.9894 O.3     1  UNL1       -0.3789
     27 H          63.4548   92.0032   14.4041 H       1  UNL1        0.2108
     28 C          63.3129   88.6189   13.7666 C.ar    1  UNL1        0.1474
     29 C          64.3503   87.8714   14.5510 C.ar    1  UNL1        0.0384
     30 C          64.3112   86.4350   14.1204 C.ar    1  UNL1        0.0373
     31 C          65.1050   85.2367   14.5491 C.ar    1  UNL1        0.0031
     32 C          64.8374   83.8981   13.9274 C.ar    1  UNL1        0.0002
     33 C          63.7759   83.7578   12.8769 C.ar    1  UNL1        0.0031
     34 C          62.9820   84.9561   12.4481 C.ar    1  UNL1        0.0375
     35 C          63.2496   86.2947   13.0699 C.ar    1  UNL1        0.1449
     36 O          62.6327   87.6444   12.8512 O.2     1  UNL1       -0.4554
     37 C          62.8042   89.9286   15.3558 C.3     1  UNL1        0.0522
     38 C          63.8363   90.4446   16.3142 C.3     1  UNL1        0.0751
     39 N          63.9350   91.9158   16.5897 N.3     1  UNL1       -0.2702
     40 C          65.2530   92.6182   16.4500 C.3     1  UNL1        0.0897
     41 C          62.7157   92.6846   17.0048 C.3     1  UNL1        0.0897
@<TRIPOS>BOND
     1    13    14    1
     2    14     2    1
     3     2     3   ar
     4     3     4   ar
     5     4     5   ar
     6     5     6   ar
     7     6     7   ar
     8     7     8    1
     9     7     9   ar
    10     9    10   ar
    11    10    11   ar
    12    11    12   ar
    13     1    12    1
    14     1    15    1
    15    15    16   ar
    16    16    17   ar
    17    17    18   ar
    18    18    19   ar
    19    19    21    1
    20    21    22    1
    21    19    20   ar
    22    20    23    1
    23    23    24    1
    24     1    25    1
    25    25    26    1
    26    25    37    1
    27    37    38    1
    28    38    39    1
    29    39    40    1
    30    39    41    1
    31    25    28    1
    32    28    29   ar
    33    29    30   ar
    34    30    31   ar
    35    31    32   ar
    36    32    33   ar
    37    33    34   ar
    38    34    35   ar
    39    35    36   ar
    40    12     2   ar
    41    20    15   ar
    42    36    28   ar
    43    10     4   ar
    44    35    30   ar
    45    26    27    1
@<TRIPOS>MOLECULE
*****
 41 45 0 0 0
SMALL
GASTEIGER

@<TRIPOS>ATOM
      1 C          62.2858   89.2471   12.0623 C.3     1  UNL1        0.0822
      2 C          63.9899   90.3729   13.6681 C.ar    1  UNL1        0.1351
      3 C          65.0353   91.4166   13.9289 C.ar    1  UNL1        0.0366
      4 C          65.4219   92.3782   12.8445 C.ar    1  UNL1        0.0030
      5 C          66.4672   93.4218   13.1052 C.ar    1  UNL1        0.0006
      6 C          66.8538   94.3834   12.0208 C.ar    1  UNL1        0.0067
      7 C          66.1951   94.3013   10.6757 C.ar    1  UNL1        0.0346
      8 BR         66.5817   95.2629    9.5913 Br      1  UNL1       -0.0490
      9 C          65.1497   93.2576   10.4150 C.ar    1  UNL1        0.0067
     10 C          64.7631   92.2960   11.4993 C.ar    1  UNL1        0.0004
     11 C          63.7178   91.2524   11.2386 C.ar    1  UNL1       -0.0009
     12 C          63.3312   90.2908   12.3230 C.ar    1  UNL1        0.0183
     13 C          63.5999   89.8577   16.1846 C.3     1  UNL1        0.2525
     14 O          63.6033   89.4113   14.7525 O.3     1  UNL1       -0.4717
     15 C          61.0890   89.1435   12.9605 C.ar    1  UNL1        0.0246
     16 C          61.2691   89.1140   14.4494 C.ar    1  UNL1        0.0200
     17 C          60.0722   89.0104   15.3477 C.ar    1  UNL1        0.1019
     18 N          58.6953   88.9364   14.7571 N.ar    1  UNL1       -0.2076
     19 C          58.5153   88.9659   13.2683 C.ar    1  UNL1        0.2598
     20 C          59.7121   89.0695   12.3700 C.ar    1  UNL1        0.1879
     21 O          57.1385   88.8919   12.6777 O.3     1  UNL1       -0.4541
     22 C          56.1169   87.9671   13.2703 C.3     1  UNL1        0.2543
     23 O          59.5321   89.0990   10.8811 O.3     1  UNL1       -0.4670
     24 C          59.5343   90.4095   10.1512 C.3     1  UNL1        0.2527
     25 C          62.4373   88.3070   10.9033 C.3     1  UNL1        0.1475
     26 O          62.1334   89.4281    9.9542 O.3     1  UNL1       -0.3789
     27 H          61.2398   89.3140    9.5945 H       1  UNL1        0.2108
     28 C          62.7412   87.1859   11.8523 C.ar    1  UNL1        0.1474
     29 C          62.1525   85.8070   11.8054 C.ar    1  UNL1        0.0384
     30 C          62.7347   85.0157   12.9391 C.ar    1  UNL1        0.0373
     31 C          62.5237   83.5999   13.3873 C.ar    1  UNL1        0.0031
     32 C          63.2611   83.0739   14.5829 C.ar    1  UNL1        0.0002
     33 C          64.2094   83.9637   15.3304 C.ar    1  UNL1        0.0031
     34 C          64.4205   85.3796   14.8822 C.ar    1  UNL1        0.0375
     35 C          63.6831   85.9056   13.6866 C.ar    1  UNL1        0.1449
     36 O          63.6871   87.2468   13.0149 O.2     1  UNL1       -0.4554
     37 C          62.5887   87.3670    9.7443 C.3     1  UNL1        0.0522
     38 C          61.4606   87.1870    8.7721 C.3     1  UNL1        0.0751
     39 N          61.3809   85.9430    7.9377 N.3     1  UNL1       -0.2702
     40 C          62.5968   85.0842    7.7536 C.3     1  UNL1        0.0897
     41 C          60.0852   85.5579    7.2874 C.3     1  UNL1        0.0897
@<TRIPOS>BOND
     1    13    14    1
     2    14     2    1
     3     2     3   ar
     4     3     4   ar
     5     4     5   ar
     6     5     6   ar
     7     6     7   ar
     8     7     8    1
     9     7     9   ar
    10     9    10   ar
    11    10    11   ar
    12    11    12   ar
    13     1    12    1
    14     1    15    1
    15    15    16   ar
    16    16    17   ar
    17    17    18   ar
    18    18    19   ar
    19    19    21    1
    20    21    22    1
    21    19    20   ar
    22    20    23    1
    23    23    24    1
    24     1    25    1
    25    25    26    1
    26    25    37    1
    27    37    38    1
    28    38    39    1
    29    39    40    1
    30    39    41    1
    31    25    28    1
    32    28    29   ar
    33    29    30   ar
    34    30    31   ar
    35    31    32   ar
    36    32    33   ar
    37    33    34   ar
    38    34    35   ar
    39    35    36   ar
    40    12     2   ar
    41    20    15   ar
    42    36    28   ar
    43    10     4   ar
    44    35    30   ar
    45    26    27    1
