@<TRIPOS>MOLECULE
*****
 32 35 0 0 0
SMALL
GASTEIGER

@<TRIPOS>ATOM
      1 O          64.5304   89.4433   14.9128 O.2     1  UNL1       -0.2742
      2 C          63.8445   89.0950   13.6250 C.2     1  UNL1        0.2336
      3 N          63.6880   87.6583   13.2234 N.am    1  UNL1       -0.2755
      4 C          63.0021   87.3100   11.9356 C.3     1  UNL1        0.1148
      5 C          62.8455   85.8733   11.5339 C.3     1  UNL1        0.1123
      6 N          63.3748   84.7848   12.4200 N.pl3   1  UNL1       -0.3041
      7 C          64.0607   85.1331   13.7077 C.3     1  UNL1        0.1123
      8 C          64.2173   86.5698   14.1094 C.3     1  UNL1        0.1148
      9 C          63.2183   83.3481   12.0183 C.ar    1  UNL1        0.0479
     10 C          62.6369   82.3584   12.9840 C.ar    1  UNL1        0.0145
     11 C          62.4803   80.9217   12.5824 C.ar    1  UNL1        0.0051
     12 C          62.9051   80.4747   11.2150 C.ar    1  UNL1        0.0715
     13 C          63.4865   81.4643   10.2493 C.ar    1  UNL1        0.0051
     14 C          63.6431   82.9011   10.6510 C.ar    1  UNL1        0.0145
     15 C          62.7486   79.0380   10.8134 C.3     1  UNL1        0.4186
     16 F          62.5920   77.6012   10.4117 F       1  UNL1       -0.1659
     17 F          62.5027   78.6645   12.2451 F       1  UNL1       -0.1659
     18 F          62.9945   79.4115    9.3816 F       1  UNL1       -0.1659
     19 C          63.3152   90.1834   12.7390 C.3     1  UNL1        0.1241
     20 C          64.2152   91.3030   12.3069 C.ar    1  UNL1       -0.0096
     21 C          64.2476   91.7267   10.8684 C.ar    1  UNL1       -0.0026
     22 C          65.1476   92.8461   10.4364 C.ar    1  UNL1        0.0111
     23 C          66.0153   93.5419   11.4429 C.ar    1  UNL1        0.0577
     24 CL         66.9153   94.6615   11.0108 Cl      1  UNL1       -0.0822
     25 C          65.9829   93.1182   12.8814 C.ar    1  UNL1        0.0111
     26 C          65.0829   91.9987   13.3134 C.ar    1  UNL1       -0.0026
     27 C          61.8859   90.1523   12.2850 C.ar    1  UNL1        0.0286
     28 C          60.8199   89.6250   13.1990 C.ar    1  UNL1        0.0987
     29 N          59.3906   89.5939   12.7450 N.ar    1  UNL1       -0.2227
     30 C          59.0273   90.0903   11.3769 C.ar    1  UNL1        0.1989
     31 N          60.0933   90.6176   10.4628 N.ar    1  UNL1       -0.2227
     32 C          61.5226   90.6487   10.9168 C.ar    1  UNL1        0.0987
@<TRIPOS>BOND
     1     1     2    2
     2     2    19    1
     3    19    20    1
     4    20    21   ar
     5    21    22   ar
     6    22    23   ar
     7    23    24    1
     8    23    25   ar
     9    25    26   ar
    10    19    27    1
    11    27    28   ar
    12    28    29   ar
    13    29    30   ar
    14    30    31   ar
    15    31    32   ar
    16     2     3   am
    17     3     4    1
    18     4     5    1
    19     5     6    1
    20     6     9    1
    21     9    10   ar
    22    10    11   ar
    23    11    12   ar
    24    12    15    1
    25    15    16    1
    26    15    17    1
    27    15    18    1
    28    12    13   ar
    29    13    14   ar
    30     6     7    1
    31     7     8    1
    32    26    20   ar
    33    32    27   ar
    34     8     3    1
    35    14     9   ar
@<TRIPOS>MOLECULE
*****
 32 35 0 0 0
SMALL
GASTEIGER

@<TRIPOS>ATOM
      1 O          63.5637   88.9633   16.8339 O.2     1  UNL1       -0.2742
      2 C          63.7321   88.7996   15.3523 C.2     1  UNL1        0.2336
      3 N          63.5920   87.4435   14.7269 N.am    1  UNL1       -0.2755
      4 C          63.7604   87.2798   13.2453 C.3     1  UNL1        0.1148
      5 C          63.6203   85.9236   12.6199 C.3     1  UNL1        0.1123
      6 N          63.3118   84.7311   13.4759 N.pl3   1  UNL1       -0.3041
      7 C          63.1434   84.8948   14.9574 C.3     1  UNL1        0.1123
      8 C          63.2835   86.2510   15.5829 C.3     1  UNL1        0.1148
      9 C          63.1717   83.3750   12.8504 C.ar    1  UNL1        0.0479
     10 C          62.6190   82.2332   13.6511 C.ar    1  UNL1        0.0145
     11 C          62.4790   80.8771   13.0256 C.ar    1  UNL1        0.0051
     12 C          62.8915   80.6627   11.5995 C.ar    1  UNL1        0.0715
     13 C          63.4442   81.8043   10.7989 C.ar    1  UNL1        0.0051
     14 C          63.5843   83.1605   11.4243 C.ar    1  UNL1        0.0145
     15 C          62.7514   79.3065   10.9741 C.3     1  UNL1        0.4186
     16 F          62.6113   77.9503   10.3486 F       1  UNL1       -0.1659
     17 F          62.5129   78.7067   12.3280 F       1  UNL1       -0.1659
     18 F          62.9899   79.9063    9.6201 F       1  UNL1       -0.1659
     19 C          64.0406   89.9921   14.4963 C.3     1  UNL1        0.1241
     20 C          65.1369   90.9362   14.8924 C.ar    1  UNL1       -0.0096
     21 C          66.4613   90.8847   14.1901 C.ar    1  UNL1       -0.0026
     22 C          67.5575   91.8288   14.5862 C.ar    1  UNL1        0.0111
     23 C          67.3293   92.8244   15.6847 C.ar    1  UNL1        0.0577
     24 CL         68.4256   93.7686   16.0808 Cl      1  UNL1       -0.0822
     25 C          66.0049   92.8760   16.3870 C.ar    1  UNL1        0.0111
     26 C          64.9087   91.9319   15.9909 C.ar    1  UNL1       -0.0026
     27 C          63.2529   90.2405   13.2442 C.ar    1  UNL1        0.0286
     28 C          61.8282   89.7804   13.1507 C.ar    1  UNL1        0.0987
     29 N          61.0405   90.0289   11.8986 N.ar    1  UNL1       -0.2227
     30 C          61.6774   90.7373   10.7400 C.ar    1  UNL1        0.1989
     31 N          63.1021   91.1973   10.8334 N.ar    1  UNL1       -0.2227
     32 C          63.8898   90.9489   12.0855 C.ar    1  UNL1        0.0987
@<TRIPOS>BOND
     1     1     2    2
     2     2    19    1
     3    19    20    1
     4    20    21   ar
     5    21    22   ar
     6    22    23   ar
     7    23    24    1
     8    23    25   ar
     9    25    26   ar
    10    19    27    1
    11    27    28   ar
    12    28    29   ar
    13    29    30   ar
    14    30    31   ar
    15    31    32   ar
    16     2     3   am
    17     3     4    1
    18     4     5    1
    19     5     6    1
    20     6     9    1
    21     9    10   ar
    22    10    11   ar
    23    11    12   ar
    24    12    15    1
    25    15    16    1
    26    15    17    1
    27    15    18    1
    28    12    13   ar
    29    13    14   ar
    30     6     7    1
    31     7     8    1
    32    26    20   ar
    33    32    27   ar
    34     8     3    1
    35    14     9   ar
@<TRIPOS>MOLECULE
*****
 32 35 0 0 0
SMALL
GASTEIGER

@<TRIPOS>ATOM
      1 O          63.6216   90.9449   16.7251 O.2     1  UNL1       -0.2742
      2 C          64.1134   90.3080   15.4592 C.2     1  UNL1        0.2336
      3 N          63.8928   88.8434   15.2217 N.am    1  UNL1       -0.2755
      4 C          64.3846   88.2065   13.9557 C.3     1  UNL1        0.1148
      5 C          64.1640   86.7420   13.7182 C.3     1  UNL1        0.1123
      6 N          63.4516   85.9143   14.7466 N.pl3   1  UNL1       -0.3041
      7 C          62.9598   86.5512   16.0124 C.3     1  UNL1        0.1123
      8 C          63.1804   88.0158   16.2500 C.3     1  UNL1        0.1148
      9 C          63.2309   84.4498   14.5090 C.ar    1  UNL1        0.0479
     10 C          64.2450   83.6531   13.7428 C.ar    1  UNL1        0.0145
     11 C          64.0244   82.1886   13.5053 C.ar    1  UNL1        0.0051
     12 C          62.7897   81.5207   14.0339 C.ar    1  UNL1        0.0715
     13 C          61.7757   82.3173   14.8001 C.ar    1  UNL1        0.0051
     14 C          61.9963   83.7819   15.0376 C.ar    1  UNL1        0.0145
     15 C          62.5691   80.0562   13.7964 C.3     1  UNL1        0.4186
     16 F          62.3484   78.5916   13.5588 F       1  UNL1       -0.1659
     17 F          61.0887   80.2894   13.7336 F       1  UNL1       -0.1659
     18 F          64.0495   79.8230   13.8592 F       1  UNL1       -0.1659
     19 C          64.8258   91.1356   14.4309 C.3     1  UNL1        0.1241
     20 C          66.1111   91.8248   14.7820 C.ar    1  UNL1       -0.0096
     21 C          66.1701   92.7440   15.9658 C.ar    1  UNL1       -0.0026
     22 C          67.4553   93.4332   16.3169 C.ar    1  UNL1        0.0111
     23 C          68.6815   93.2031   15.4841 C.ar    1  UNL1        0.0577
     24 CL         69.9667   93.8923   15.8352 Cl      1  UNL1       -0.0822
     25 C          68.6224   92.2839   14.3002 C.ar    1  UNL1        0.0111
     26 C          67.3372   91.5948   13.9492 C.ar    1  UNL1       -0.0026
     27 C          64.2530   91.2740   13.0515 C.ar    1  UNL1        0.0286
     28 C          62.9303   90.6480   12.7223 C.ar    1  UNL1        0.0987
     29 N          62.3575   90.7865   11.3429 N.ar    1  UNL1       -0.2227
     30 C          63.1075   91.5510   10.2927 C.ar    1  UNL1        0.1989
     31 N          64.4303   92.1770   10.6218 N.ar    1  UNL1       -0.2227
     32 C          65.0031   92.0386   12.0012 C.ar    1  UNL1        0.0987
@<TRIPOS>BOND
     1     1     2    2
     2     2    19    1
     3    19    20    1
     4    20    21   ar
     5    21    22   ar
     6    22    23   ar
     7    23    24    1
     8    23    25   ar
     9    25    26   ar
    10    19    27    1
    11    27    28   ar
    12    28    29   ar
    13    29    30   ar
    14    30    31   ar
    15    31    32   ar
    16     2     3   am
    17     3     4    1
    18     4     5    1
    19     5     6    1
    20     6     9    1
    21     9    10   ar
    22    10    11   ar
    23    11    12   ar
    24    12    15    1
    25    15    16    1
    26    15    17    1
    27    15    18    1
    28    12    13   ar
    29    13    14   ar
    30     6     7    1
    31     7     8    1
    32    26    20   ar
    33    32    27   ar
    34     8     3    1
    35    14     9   ar
@<TRIPOS>MOLECULE
*****
 32 35 0 0 0
SMALL
GASTEIGER

@<TRIPOS>ATOM
      1 O          62.3768   91.3244   10.4084 O.2     1  UNL1       -0.2742
      2 C          63.2579   90.6915   11.4444 C.2     1  UNL1        0.2336
      3 N          63.1125   89.2330   11.7629 N.am    1  UNL1       -0.2755
      4 C          63.9935   88.6000   12.7989 C.3     1  UNL1        0.1148
      5 C          63.8481   87.1415   13.1175 C.3     1  UNL1        0.1123
      6 N          62.8216   86.3159   12.4001 N.pl3   1  UNL1       -0.3041
      7 C          61.9405   86.9487   11.3642 C.3     1  UNL1        0.1123
      8 C          62.0859   88.4073   11.0456 C.3     1  UNL1        0.1148
      9 C          62.6761   84.8573   12.7187 C.ar    1  UNL1        0.0479
     10 C          62.4780   84.4159   14.1386 C.ar    1  UNL1        0.0145
     11 C          62.3325   82.9574   14.4572 C.ar    1  UNL1        0.0051
     12 C          62.3852   81.9403   13.3560 C.ar    1  UNL1        0.0715
     13 C          62.5833   82.3816   11.9362 C.ar    1  UNL1        0.0051
     14 C          62.7287   83.8402   11.6175 C.ar    1  UNL1        0.0145
     15 C          62.2397   80.4817   13.6745 C.3     1  UNL1        0.4186
     16 F          62.0943   79.0231   13.9931 F       1  UNL1       -0.1659
     17 F          63.7228   80.3040   13.5380 F       1  UNL1       -0.1659
     18 F          60.7566   80.6595   13.8110 F       1  UNL1       -0.1659
     19 C          64.2844   91.5171   12.1617 C.3     1  UNL1        0.1241
     20 C          65.2820   92.3190   11.3795 C.ar    1  UNL1       -0.0096
     21 C          66.6128   91.7232   11.0276 C.ar    1  UNL1       -0.0026
     22 C          67.6103   92.5252   10.2454 C.ar    1  UNL1        0.0111
     23 C          67.2770   93.9229    9.8151 C.ar    1  UNL1        0.0577
     24 CL         68.2745   94.7249    9.0328 Cl      1  UNL1       -0.0822
     25 C          65.9461   94.5187   10.1670 C.ar    1  UNL1        0.0111
     26 C          64.9487   93.7168   10.9492 C.ar    1  UNL1       -0.0026
     27 C          64.3134   91.5408   13.6612 C.ar    1  UNL1        0.0286
     28 C          65.3881   92.3026   14.3786 C.ar    1  UNL1        0.0987
     29 N          65.4171   92.3263   15.8782 N.ar    1  UNL1       -0.2227
     30 C          64.3713   91.5883   16.6603 C.ar    1  UNL1        0.1989
     31 N          63.2966   90.8265   15.9429 N.ar    1  UNL1       -0.2227
     32 C          63.2676   90.8028   14.4434 C.ar    1  UNL1        0.0987
@<TRIPOS>BOND
     1     1     2    2
     2     2    19    1
     3    19    20    1
     4    20    21   ar
     5    21    22   ar
     6    22    23   ar
     7    23    24    1
     8    23    25   ar
     9    25    26   ar
    10    19    27    1
    11    27    28   ar
    12    28    29   ar
    13    29    30   ar
    14    30    31   ar
    15    31    32   ar
    16     2     3   am
    17     3     4    1
    18     4     5    1
    19     5     6    1
    20     6     9    1
    21     9    10   ar
    22    10    11   ar
    23    11    12   ar
    24    12    15    1
    25    15    16    1
    26    15    17    1
    27    15    18    1
    28    12    13   ar
    29    13    14   ar
    30     6     7    1
    31     7     8    1
    32    26    20   ar
    33    32    27   ar
    34     8     3    1
    35    14     9   ar
@<TRIPOS>MOLECULE
*****
 32 35 0 0 0
SMALL
GASTEIGER

@<TRIPOS>ATOM
      1 O          59.3119   88.2642   12.3156 O.2     1  UNL1       -0.2742
      2 C          60.6527   88.2703   11.6430 C.2     1  UNL1        0.2336
      3 N          61.7960   89.0229   12.2563 N.am    1  UNL1       -0.2755
      4 C          63.1368   89.0291   11.5837 C.3     1  UNL1        0.1148
      5 C          64.2802   89.7817   12.1970 C.3     1  UNL1        0.1123
      6 N          64.0829   90.5282   13.4830 N.pl3   1  UNL1       -0.3041
      7 C          62.7422   90.5221   14.1557 C.3     1  UNL1        0.1123
      8 C          61.5987   89.7695   13.5423 C.3     1  UNL1        0.1148
      9 C          65.2262   91.2808   14.0964 C.ar    1  UNL1        0.0479
     10 C          65.1471   91.7317   15.5249 C.ar    1  UNL1        0.0145
     11 C          66.2904   92.4843   16.1382 C.ar    1  UNL1        0.0051
     12 C          67.5130   92.7861   15.3231 C.ar    1  UNL1        0.0715
     13 C          67.5922   92.3353   13.8947 C.ar    1  UNL1        0.0051
     14 C          66.4487   91.5826   13.2813 C.ar    1  UNL1        0.0145
     15 C          68.6563   93.5387   15.9365 C.3     1  UNL1        0.4186
     16 F          69.7998   94.2914   16.5498 F       1  UNL1       -0.1659
     17 F          68.1688   94.8032   15.2937 F       1  UNL1       -0.1659
     18 F          69.1439   92.2742   16.5792 F       1  UNL1       -0.1659
     19 C          60.8500   87.5238   10.3570 C.3     1  UNL1        0.1241
     20 C          61.7359   86.3138   10.3205 C.ar    1  UNL1       -0.0096
     21 C          62.4260   85.9277    9.0460 C.ar    1  UNL1       -0.0026
     22 C          63.3118   84.7178    9.0096 C.ar    1  UNL1        0.0111
     23 C          63.5075   83.8940   10.2477 C.ar    1  UNL1        0.0577
     24 CL         64.3933   82.6840   10.2112 Cl      1  UNL1       -0.0822
     25 C          62.8173   84.2800   11.5223 C.ar    1  UNL1        0.0111
     26 C          61.9315   85.4900   11.5587 C.ar    1  UNL1       -0.0026
     27 C          60.1615   87.9872    9.1075 C.ar    1  UNL1        0.0286
     28 C          60.4195   89.3660    8.5763 C.ar    1  UNL1        0.0987
     29 N          59.7310   89.8294    7.3268 N.ar    1  UNL1       -0.2227
     30 C          58.7845   88.9139    6.6085 C.ar    1  UNL1        0.1989
     31 N          58.5264   87.5351    7.1397 N.ar    1  UNL1       -0.2227
     32 C          59.2149   87.0717    8.3892 C.ar    1  UNL1        0.0987
@<TRIPOS>BOND
     1     1     2    2
     2     2    19    1
     3    19    20    1
     4    20    21   ar
     5    21    22   ar
     6    22    23   ar
     7    23    24    1
     8    23    25   ar
     9    25    26   ar
    10    19    27    1
    11    27    28   ar
    12    28    29   ar
    13    29    30   ar
    14    30    31   ar
    15    31    32   ar
    16     2     3   am
    17     3     4    1
    18     4     5    1
    19     5     6    1
    20     6     9    1
    21     9    10   ar
    22    10    11   ar
    23    11    12   ar
    24    12    15    1
    25    15    16    1
    26    15    17    1
    27    15    18    1
    28    12    13   ar
    29    13    14   ar
    30     6     7    1
    31     7     8    1
    32    26    20   ar
    33    32    27   ar
    34     8     3    1
    35    14     9   ar
@<TRIPOS>MOLECULE
*****
 32 35 0 0 0
SMALL
GASTEIGER

@<TRIPOS>ATOM
      1 O          64.9559   83.0872   11.3402 O.2     1  UNL1       -0.2742
      2 C          63.7166   83.7416   11.8750 C.2     1  UNL1        0.2336
      3 N          62.9488   84.7057   11.0200 N.am    1  UNL1       -0.2755
      4 C          61.7095   85.3601   11.5549 C.3     1  UNL1        0.1148
      5 C          60.9417   86.3241   10.6999 C.3     1  UNL1        0.1123
      6 N          61.4132   86.6339    9.3101 N.pl3   1  UNL1       -0.3041
      7 C          62.6524   85.9796    8.7752 C.3     1  UNL1        0.1123
      8 C          63.4203   85.0155    9.6302 C.3     1  UNL1        0.1148
      9 C          60.6455   87.5980    8.4551 C.ar    1  UNL1        0.0479
     10 C          60.7741   89.0742    8.6882 C.ar    1  UNL1        0.0145
     11 C          60.0064   90.0383    7.8333 C.ar    1  UNL1        0.0051
     12 C          59.1099   89.5262    6.7451 C.ar    1  UNL1        0.0715
     13 C          58.9812   88.0501    6.5119 C.ar    1  UNL1        0.0051
     14 C          59.7490   87.0859    7.3669 C.ar    1  UNL1        0.0145
     15 C          58.3422   90.4903    5.8901 C.3     1  UNL1        0.4186
     16 F          57.5744   91.4545    5.0350 F       1  UNL1       -0.1659
     17 F          59.6306   91.0812    5.3994 F       1  UNL1       -0.1659
     18 F          57.0538   89.8994    6.3808 F       1  UNL1       -0.1659
     19 C          63.2451   83.4318   13.2649 C.3     1  UNL1        0.1241
     20 C          63.2450   84.5046   14.3134 C.ar    1  UNL1       -0.0096
     21 C          62.3276   84.3981   15.4953 C.ar    1  UNL1       -0.0026
     22 C          62.3276   85.4708   16.5437 C.ar    1  UNL1        0.0111
     23 C          63.2449   86.6501   16.4102 C.ar    1  UNL1        0.0577
     24 CL         63.2448   87.7228   17.4587 Cl      1  UNL1       -0.0822
     25 C          64.1623   86.7566   15.2283 C.ar    1  UNL1        0.0111
     26 C          64.1624   85.6839   14.1799 C.ar    1  UNL1       -0.0026
     27 C          62.7737   82.0494   13.6063 C.ar    1  UNL1        0.0286
     28 C          63.7694   80.9454   13.8058 C.ar    1  UNL1        0.0987
     29 N          63.2980   79.5629   14.1472 N.ar    1  UNL1       -0.2227
     30 C          61.8309   79.2844   14.2892 C.ar    1  UNL1        0.1989
     31 N          60.8353   80.3885   14.0897 N.ar    1  UNL1       -0.2227
     32 C          61.3066   81.7709   13.7483 C.ar    1  UNL1        0.0987
@<TRIPOS>BOND
     1     1     2    2
     2     2    19    1
     3    19    20    1
     4    20    21   ar
     5    21    22   ar
     6    22    23   ar
     7    23    24    1
     8    23    25   ar
     9    25    26   ar
    10    19    27    1
    11    27    28   ar
    12    28    29   ar
    13    29    30   ar
    14    30    31   ar
    15    31    32   ar
    16     2     3   am
    17     3     4    1
    18     4     5    1
    19     5     6    1
    20     6     9    1
    21     9    10   ar
    22    10    11   ar
    23    11    12   ar
    24    12    15    1
    25    15    16    1
    26    15    17    1
    27    15    18    1
    28    12    13   ar
    29    13    14   ar
    30     6     7    1
    31     7     8    1
    32    26    20   ar
    33    32    27   ar
    34     8     3    1
    35    14     9   ar
@<TRIPOS>MOLECULE
*****
 32 35 0 0 0
SMALL
GASTEIGER

@<TRIPOS>ATOM
      1 O          59.4796   88.2750   12.4216 O.2     1  UNL1       -0.2742
      2 C          60.8004   88.3453   11.7140 C.2     1  UNL1        0.2336
      3 N          61.9453   89.0893   12.3349 N.am    1  UNL1       -0.2755
      4 C          63.2660   89.1596   11.6272 C.3     1  UNL1        0.1148
      5 C          64.4109   89.9036   12.2482 C.3     1  UNL1        0.1123
      6 N          64.2352   90.5773   13.5768 N.pl3   1  UNL1       -0.3041
      7 C          62.9145   90.5070   14.2845 C.3     1  UNL1        0.1123
      8 C          61.7695   89.7630   13.6635 C.3     1  UNL1        0.1148
      9 C          65.3801   91.3213   14.1977 C.ar    1  UNL1        0.0479
     10 C          65.2419   91.8950   15.5768 C.ar    1  UNL1        0.0145
     11 C          66.3868   92.6390   16.1978 C.ar    1  UNL1        0.0051
     12 C          67.6699   92.8093   15.4397 C.ar    1  UNL1        0.0715
     13 C          67.8081   92.2356   14.0607 C.ar    1  UNL1        0.0051
     14 C          66.6632   91.4916   13.4397 C.ar    1  UNL1        0.0145
     15 C          68.8149   93.5533   16.0606 C.3     1  UNL1        0.4186
     16 F          69.9598   94.2974   16.6816 F       1  UNL1       -0.1659
     17 F          68.2700   94.8423   15.5208 F       1  UNL1       -0.1659
     18 F          69.3597   92.2643   16.6005 F       1  UNL1       -0.1659
     19 C          60.9761   87.6716   10.3853 C.3     1  UNL1        0.1241
     20 C          60.3457   88.2589    9.1574 C.ar    1  UNL1       -0.0096
     21 C          59.4474   87.4176    8.3000 C.ar    1  UNL1       -0.0026
     22 C          58.8170   88.0049    7.0722 C.ar    1  UNL1        0.0111
     23 C          59.0851   89.4335    6.7017 C.ar    1  UNL1        0.0577
     24 CL         58.4547   90.0208    5.4737 Cl      1  UNL1       -0.0822
     25 C          59.9834   90.2748    7.5590 C.ar    1  UNL1        0.0111
     26 C          60.6138   89.6875    8.7869 C.ar    1  UNL1       -0.0026
     27 C          61.7822   86.4107   10.2846 C.ar    1  UNL1        0.0286
     28 C          61.9191   85.5107   11.4769 C.ar    1  UNL1        0.0987
     29 N          62.7252   84.2497   11.3761 N.ar    1  UNL1       -0.2227
     30 C          63.3945   83.8887   10.0832 C.ar    1  UNL1        0.1989
     31 N          63.2576   84.7886    8.8909 N.ar    1  UNL1       -0.2227
     32 C          62.4515   86.0496    8.9917 C.ar    1  UNL1        0.0987
@<TRIPOS>BOND
     1     1     2    2
     2     2    19    1
     3    19    20    1
     4    20    21   ar
     5    21    22   ar
     6    22    23   ar
     7    23    24    1
     8    23    25   ar
     9    25    26   ar
    10    19    27    1
    11    27    28   ar
    12    28    29   ar
    13    29    30   ar
    14    30    31   ar
    15    31    32   ar
    16     2     3   am
    17     3     4    1
    18     4     5    1
    19     5     6    1
    20     6     9    1
    21     9    10   ar
    22    10    11   ar
    23    11    12   ar
    24    12    15    1
    25    15    16    1
    26    15    17    1
    27    15    18    1
    28    12    13   ar
    29    13    14   ar
    30     6     7    1
    31     7     8    1
    32    26    20   ar
    33    32    27   ar
    34     8     3    1
    35    14     9   ar
