@<TRIPOS>MOLECULE
*****
 42 43 0 0 0
SMALL
GASTEIGER

@<TRIPOS>ATOM
      1 N          62.6924   88.3937   10.5167 N.am    1  UNL1       -0.3046
      2 C          61.3870   87.7517   10.1512 C.2     1  UNL1        0.2403
      3 O          60.0953   88.3781   10.5860 O.2     1  UNL1       -0.2733
      4 H          63.5402   87.9826   10.2313 H       1  UNL1        0.1494
      5 C          62.7062   89.6623   11.3171 C.3     1  UNL1        0.0717
      6 C          62.5780   90.9870   10.6253 C.3     1  UNL1        0.0196
      7 C          63.8050   91.7899   10.3092 C.3     1  UNL1        0.0017
      8 C          62.8481   89.6059   12.8093 C.3     1  UNL1        0.0213
      9 C          64.2049   89.4434   13.4280 C.3     1  UNL1        0.0214
     10 C          64.7497   90.5097   14.3316 C.3     1  UNL1        0.0748
     11 N          66.2132   90.8375   14.3074 N.am    1  UNL1       -0.2723
     12 C          66.7005   92.0384   13.5523 C.2     1  UNL1        0.4019
     13 O          68.1640   92.3662   13.5281 O.2     1  UNL1       -0.2264
     14 H          66.8540   90.2644   14.7872 H       1  UNL1        0.1527
     15 O          65.7241   92.9116   12.8213 O.3     1  UNL1       -0.4291
     16 C          66.1809   94.2079   12.2206 C.3     1  UNL1        0.2447
     17 C          66.7610   94.2304   10.8374 C.ar    1  UNL1        0.0714
     18 C          67.3168   93.0515   10.0951 C.ar    1  UNL1        0.1053
     19 N          67.7864   93.5285    8.7527 N.ar    1  UNL1       -0.2350
     20 C          67.5209   95.0021    8.6655 C.ar    1  UNL1        0.1343
     21 S          66.8872   95.4360    9.9539 S.2     1  UNL1       -0.0652
     22 C          64.3882   91.9638   16.4540 C.3     1  UNL1        0.0017
     23 C          63.8309   91.2480   15.2594 C.3     1  UNL1        0.0197
     24 C          61.3733   86.4831    9.3507 C.3     1  UNL1        0.1496
     25 N          62.1921   85.3074    9.7947 N.am    1  UNL1       -0.2824
     26 C          62.2965   84.9740   11.2535 C.2     1  UNL1        0.3046
     27 O          61.5820   85.8163   12.2683 O.2     1  UNL1       -0.2526
     28 N          63.1154   83.7982   11.6974 N.am    1  UNL1       -0.2567
     29 C          63.8299   82.9559   10.6825 C.3     1  UNL1        0.1168
     30 H          62.6611   84.7546    9.1286 H       1  UNL1        0.1514
     31 C          63.2197   83.4649   13.1562 C.3     1  UNL1        0.1413
     32 C          63.6330   84.5200   14.1389 C.ar    1  UNL1        0.0858
     33 C          64.9988   85.1290   14.2564 C.ar    1  UNL1        0.0530
     34 S          64.9630   86.1368   15.3669 S.2     1  UNL1       -0.0705
     35 C          63.5751   86.1507   15.9357 C.ar    1  UNL1        0.0875
     36 N          62.7531   85.1514   15.1767 N.ar    1  UNL1       -0.2453
     37 C          63.0937   87.0124   17.0651 C.3     1  UNL1        0.0465
     38 C          62.6731   86.3847   18.3608 C.3     1  UNL1        0.0069
     39 C          63.0328   88.5020   16.8987 C.3     1  UNL1        0.0069
     40 C          60.5408   86.3903    8.1064 C.3     1  UNL1        0.0270
     41 C          60.8488   85.3465    7.0742 C.3     1  UNL1        0.0022
     42 C          59.4003   87.3413    7.8944 C.3     1  UNL1        0.0022
@<TRIPOS>BOND
     1    22    23    1
     2    10    23    1
     3    10     9    1
     4     9     8    1
     5     5     8    1
     6     5     6    1
     7     6     7    1
     8     5     1    1
     9     1     2   am
    10     2     3    2
    11     2    24    1
    12    24    25    1
    13    25    26   am
    14    26    27    2
    15    26    28   am
    16    28    29    1
    17    28    31    1
    18    31    32    1
    19    32    33   ar
    20    33    34   ar
    21    34    35   ar
    22    35    37    1
    23    37    38    1
    24    37    39    1
    25    35    36   ar
    26    24    40    1
    27    40    41    1
    28    40    42    1
    29    10    11    1
    30    11    12   am
    31    12    13    2
    32    12    15    1
    33    15    16    1
    34    16    17    1
    35    17    18   ar
    36    18    19   ar
    37    19    20   ar
    38    20    21   ar
    39    36    32   ar
    40    21    17   ar
    41     1     4    1
    42    25    30    1
    43    11    14    1
@<TRIPOS>MOLECULE
*****
 42 43 0 0 0
SMALL
GASTEIGER

@<TRIPOS>ATOM
      1 N          63.0041   85.5288   13.2689 N.am    1  UNL1       -0.3046
      2 C          64.1219   85.8074   14.2296 C.2     1  UNL1        0.2403
      3 O          65.3685   84.9740   14.1918 O.2     1  UNL1       -0.2733
      4 H          62.1859   86.0758   13.2937 H       1  UNL1        0.1494
      5 C          63.1329   84.4169   12.2704 C.3     1  UNL1        0.0717
      6 C          63.1553   82.9907   12.7347 C.3     1  UNL1        0.0196
      7 C          62.6494   81.9014   11.8363 C.3     1  UNL1        0.0017
      8 C          63.2392   84.7311   10.8076 C.3     1  UNL1        0.0213
      9 C          62.3238   85.7464   10.1902 C.3     1  UNL1        0.0214
     10 C          61.8103   85.5435    8.7954 C.3     1  UNL1        0.0748
     11 N          60.3417   85.6581    8.5128 N.am    1  UNL1       -0.2723
     12 C          59.7491   86.9875    8.1506 C.2     1  UNL1        0.4019
     13 O          58.2804   87.1021    7.8680 O.2     1  UNL1       -0.2264
     14 H          59.7667   84.8606    8.5650 H       1  UNL1        0.1527
     15 O          60.6252   88.2025    8.0711 O.3     1  UNL1       -0.4291
     16 C          61.2472   88.7614    9.3163 C.3     1  UNL1        0.2447
     17 C          60.3848   89.1165   10.4913 C.ar    1  UNL1        0.0714
     18 C          59.8914   88.1665   11.5418 C.ar    1  UNL1        0.1053
     19 N          59.0662   88.9469   12.5217 N.ar    1  UNL1       -0.2350
     20 C          59.0496   90.3791   12.0766 C.ar    1  UNL1        0.1343
     21 S          59.8646   90.4840   10.8217 S.2     1  UNL1       -0.0652
     22 C          62.2704   84.5488    6.4399 C.3     1  UNL1        0.0017
     23 C          62.7656   85.2259    7.6834 C.3     1  UNL1        0.0197
     24 C          63.9930   86.9193   15.2281 C.3     1  UNL1        0.1496
     25 N          64.6768   88.2315   14.9816 N.am    1  UNL1       -0.2824
     26 C          64.1571   89.1614   13.9256 C.2     1  UNL1        0.3046
     27 O          62.9536   88.7791   13.1159 O.2     1  UNL1       -0.2526
     28 N          64.8409   90.4736   13.6791 N.am    1  UNL1       -0.2567
     29 C          66.0444   90.8558   14.4888 C.3     1  UNL1        0.1168
     30 H          65.4666   88.4824   15.5130 H       1  UNL1        0.1514
     31 C          64.3211   91.4034   12.6231 C.3     1  UNL1        0.1413
     32 C          65.2531   92.3624   11.9434 C.ar    1  UNL1        0.0858
     33 C          65.6658   93.7080   12.4620 C.ar    1  UNL1        0.0530
     34 S          66.6038   94.3212   11.4650 S.2     1  UNL1       -0.0705
     35 C          66.7708   93.3546   10.3302 C.ar    1  UNL1        0.0875
     36 N          65.9360   92.1440   10.6259 N.ar    1  UNL1       -0.2453
     37 C          67.6229   93.5623    9.1133 C.3     1  UNL1        0.0465
     38 C          67.4340   94.7849    8.2652 C.3     1  UNL1        0.0069
     39 C          68.6640   92.5472    8.7446 C.3     1  UNL1        0.0069
     40 C          63.1804   86.7192   16.4729 C.3     1  UNL1        0.0270
     41 C          62.9005   87.8802   17.3805 C.3     1  UNL1        0.0022
     42 C          62.6479   85.3581   16.8102 C.3     1  UNL1        0.0022
@<TRIPOS>BOND
     1    22    23    1
     2    10    23    1
     3    10     9    1
     4     9     8    1
     5     5     8    1
     6     5     6    1
     7     6     7    1
     8     5     1    1
     9     1     2   am
    10     2     3    2
    11     2    24    1
    12    24    25    1
    13    25    26   am
    14    26    27    2
    15    26    28   am
    16    28    29    1
    17    28    31    1
    18    31    32    1
    19    32    33   ar
    20    33    34   ar
    21    34    35   ar
    22    35    37    1
    23    37    38    1
    24    37    39    1
    25    35    36   ar
    26    24    40    1
    27    40    41    1
    28    40    42    1
    29    10    11    1
    30    11    12   am
    31    12    13    2
    32    12    15    1
    33    15    16    1
    34    16    17    1
    35    17    18   ar
    36    18    19   ar
    37    19    20   ar
    38    20    21   ar
    39    36    32   ar
    40    21    17   ar
    41     1     4    1
    42    25    30    1
    43    11    14    1
@<TRIPOS>MOLECULE
*****
 42 43 0 0 0
SMALL
GASTEIGER

@<TRIPOS>ATOM
      1 N          63.2545   85.7489   14.0790 N.am    1  UNL1       -0.3046
      2 C          63.9480   84.4603   13.7495 C.2     1  UNL1        0.2403
      3 O          65.2308   84.1013   14.4389 O.2     1  UNL1       -0.2733
      4 H          62.4125   85.9845   13.6265 H       1  UNL1        0.1494
      5 C          63.8438   86.6785   15.0980 C.3     1  UNL1        0.0717
      6 C          63.4908   86.5236   16.5476 C.3     1  UNL1        0.0196
      7 C          62.4062   85.5720   16.9578 C.3     1  UNL1        0.0017
      8 C          64.7862   87.7631   14.6674 C.3     1  UNL1        0.0213
      9 C          64.2498   89.0991   14.2462 C.3     1  UNL1        0.0214
     10 C          64.7359   90.3485   14.9191 C.3     1  UNL1        0.0748
     11 N          66.1088   90.8749   14.6220 N.am    1  UNL1       -0.2723
     12 C          66.2954   91.9370   13.5795 C.2     1  UNL1        0.4019
     13 O          67.6683   92.4633   13.2824 O.2     1  UNL1       -0.2264
     14 H          66.8873   90.5232   15.1114 H       1  UNL1        0.1527
     15 O          65.1092   92.4727   12.8339 O.3     1  UNL1       -0.4291
     16 C          65.1450   92.5693   11.3375 C.3     1  UNL1        0.2447
     17 C          66.1026   93.5109   10.6692 C.ar    1  UNL1        0.0714
     18 C          67.3264   93.1211    9.8946 C.ar    1  UNL1        0.1053
     19 N          67.9846   94.3769    9.4050 N.ar    1  UNL1       -0.2350
     20 C          67.1676   95.5428    9.8771 C.ar    1  UNL1        0.1343
     21 S          66.0044   95.0076   10.6585 S.2     1  UNL1       -0.0652
     22 C          64.4189   92.1424   16.7715 C.3     1  UNL1        0.0017
     23 C          63.8491   91.0715   15.8891 C.3     1  UNL1        0.0197
     24 C          63.3585   83.5307   12.7304 C.3     1  UNL1        0.1496
     25 N          63.3785   83.9011   11.2770 N.am    1  UNL1       -0.2824
     26 C          62.4931   85.0012   10.7711 C.2     1  UNL1        0.3046
     27 O          61.5877   85.7309   11.7187 O.2     1  UNL1       -0.2526
     28 N          62.5131   85.3717    9.3177 N.am    1  UNL1       -0.2567
     29 C          63.4185   84.6419    8.3702 C.3     1  UNL1        0.1168
     30 H          63.9727   83.4222   10.6552 H       1  UNL1        0.1514
     31 C          61.6277   86.4718    8.8119 C.3     1  UNL1        0.1413
     32 C          61.3326   87.6572    9.6824 C.ar    1  UNL1        0.0858
     33 C          62.2995   88.7435   10.0500 C.ar    1  UNL1        0.0530
     34 S          61.5833   89.7221   10.9329 S.2     1  UNL1       -0.0705
     35 C          60.1738   89.2406   11.1109 C.ar    1  UNL1        0.0875
     36 N          60.0189   87.9644   10.3380 N.ar    1  UNL1       -0.2453
     37 C          59.1067   89.9166   11.9197 C.3     1  UNL1        0.0465
     38 C          58.3928   89.1603   13.0007 C.3     1  UNL1        0.0069
     39 C          58.7535   91.3488   11.6477 C.3     1  UNL1        0.0069
     40 C          62.7491   82.2307   13.1647 C.3     1  UNL1        0.0270
     41 C          62.0050   82.1484   14.4646 C.3     1  UNL1        0.0022
     42 C          62.8837   81.0130   12.2992 C.3     1  UNL1        0.0022
@<TRIPOS>BOND
     1    22    23    1
     2    10    23    1
     3    10     9    1
     4     9     8    1
     5     5     8    1
     6     5     6    1
     7     6     7    1
     8     5     1    1
     9     1     2   am
    10     2     3    2
    11     2    24    1
    12    24    25    1
    13    25    26   am
    14    26    27    2
    15    26    28   am
    16    28    29    1
    17    28    31    1
    18    31    32    1
    19    32    33   ar
    20    33    34   ar
    21    34    35   ar
    22    35    37    1
    23    37    38    1
    24    37    39    1
    25    35    36   ar
    26    24    40    1
    27    40    41    1
    28    40    42    1
    29    10    11    1
    30    11    12   am
    31    12    13    2
    32    12    15    1
    33    15    16    1
    34    16    17    1
    35    17    18   ar
    36    18    19   ar
    37    19    20   ar
    38    20    21   ar
    39    36    32   ar
    40    21    17   ar
    41     1     4    1
    42    25    30    1
    43    11    14    1
@<TRIPOS>MOLECULE
*****
 42 43 0 0 0
SMALL
GASTEIGER

@<TRIPOS>ATOM
      1 N          63.1791   85.3512   13.8691 N.am    1  UNL1       -0.3046
      2 C          63.9967   84.2239   13.3119 C.2     1  UNL1        0.2403
      3 O          65.3659   83.9485   13.8590 O.2     1  UNL1       -0.2733
      4 H          62.2804   85.5319   13.5100 H       1  UNL1        0.1494
      5 C          63.7306   86.2033   14.9735 C.3     1  UNL1        0.0717
      6 C          63.7388   85.6910   16.3833 C.3     1  UNL1        0.0196
      7 C          62.6436   86.0834   17.3302 C.3     1  UNL1        0.0017
      8 C          64.2740   87.5676   14.6681 C.3     1  UNL1        0.0213
      9 C          64.0704   88.6910   15.6410 C.3     1  UNL1        0.0214
     10 C          63.5492   90.0133   15.1614 C.3     1  UNL1        0.0748
     11 N          63.4155   91.1592   16.1201 N.am    1  UNL1       -0.2723
     12 C          64.5834   92.0660   16.3726 C.2     1  UNL1        0.4019
     13 O          64.4497   93.2119   17.3313 O.2     1  UNL1       -0.2264
     14 H          62.5613   91.3161   16.5836 H       1  UNL1        0.1527
     15 O          65.8849   91.8270   15.6662 O.3     1  UNL1       -0.4291
     16 C          66.6117   92.9719   15.0253 C.3     1  UNL1        0.2447
     17 C          66.8580   92.9699   13.5456 C.ar    1  UNL1        0.0714
     18 C          67.8207   92.0831   12.8132 C.ar    1  UNL1        0.1053
     19 N          67.7424   92.4195   11.3535 N.ar    1  UNL1       -0.2350
     20 C          66.7312   93.5142   11.1838 C.ar    1  UNL1        0.1343
     21 S          66.1845   93.8544   12.5386 S.2     1  UNL1       -0.0652
     22 C          64.0410   90.9812   12.8011 C.3     1  UNL1        0.0017
     23 C          63.1616   90.1897   13.7231 C.3     1  UNL1        0.0197
     24 C          63.4450   83.3718   12.2074 C.3     1  UNL1        0.1496
     25 N          63.4173   83.8926   10.8010 N.am    1  UNL1       -0.2824
     26 C          62.3990   84.9189   10.4010 C.2     1  UNL1        0.3046
     27 O          61.4084   85.4244   11.4076 O.2     1  UNL1       -0.2526
     28 N          62.3713   85.4396    8.9946 N.am    1  UNL1       -0.2567
     29 C          63.3619   84.9341    7.9881 C.3     1  UNL1        0.1168
     30 H          64.0675   83.5608   10.1404 H       1  UNL1        0.1514
     31 C          61.3530   86.4658    8.5948 C.3     1  UNL1        0.1413
     32 C          61.1246   87.6715    9.4574 C.ar    1  UNL1        0.0858
     33 C          62.0989   88.7887    9.6871 C.ar    1  UNL1        0.0530
     34 S          61.4582   89.7793   10.6134 S.2     1  UNL1       -0.0705
     35 C          60.0879   89.2744   10.9563 C.ar    1  UNL1        0.0875
     36 N          59.8817   87.9718   10.2418 N.ar    1  UNL1       -0.2453
     37 C          59.0977   89.9531   11.8557 C.3     1  UNL1        0.0465
     38 C          58.7422   91.3926   11.6288 C.3     1  UNL1        0.0069
     39 C          58.4631   89.1923   12.9819 C.3     1  UNL1        0.0069
     40 C          62.9211   81.9992   12.5094 C.3     1  UNL1        0.0270
     41 C          62.9364   80.9401   11.4472 C.3     1  UNL1        0.0022
     42 C          62.3818   81.6855   13.8735 C.3     1  UNL1        0.0022
@<TRIPOS>BOND
     1    22    23    1
     2    10    23    1
     3    10     9    1
     4     9     8    1
     5     5     8    1
     6     5     6    1
     7     6     7    1
     8     5     1    1
     9     1     2   am
    10     2     3    2
    11     2    24    1
    12    24    25    1
    13    25    26   am
    14    26    27    2
    15    26    28   am
    16    28    29    1
    17    28    31    1
    18    31    32    1
    19    32    33   ar
    20    33    34   ar
    21    34    35   ar
    22    35    37    1
    23    37    38    1
    24    37    39    1
    25    35    36   ar
    26    24    40    1
    27    40    41    1
    28    40    42    1
    29    10    11    1
    30    11    12   am
    31    12    13    2
    32    12    15    1
    33    15    16    1
    34    16    17    1
    35    17    18   ar
    36    18    19   ar
    37    19    20   ar
    38    20    21   ar
    39    36    32   ar
    40    21    17   ar
    41     1     4    1
    42    25    30    1
    43    11    14    1
@<TRIPOS>MOLECULE
*****
 42 43 0 0 0
SMALL
GASTEIGER

@<TRIPOS>ATOM
      1 N          62.1725   84.8253   10.7247 N.am    1  UNL1       -0.3046
      2 C          62.1977   85.6210    9.4534 C.2     1  UNL1        0.2403
      3 O          63.4236   85.6151    8.5891 O.2     1  UNL1       -0.2733
      4 H          61.3679   84.8292   11.2920 H       1  UNL1        0.1494
      5 C          63.3732   84.0236   11.1317 C.3     1  UNL1        0.0717
      6 C          63.9332   82.9875   10.2028 C.3     1  UNL1        0.0196
      7 C          63.5107   81.5544   10.3354 C.3     1  UNL1        0.0017
      8 C          64.0137   84.2580   12.4676 C.3     1  UNL1        0.0213
      9 C          64.0404   83.1602   13.4894 C.3     1  UNL1        0.0214
     10 C          62.7689   82.7241   14.1552 C.3     1  UNL1        0.0748
     11 N          62.4626   83.1723   15.5536 N.am    1  UNL1       -0.2723
     12 C          62.6131   84.6169   15.9281 C.2     1  UNL1        0.4019
     13 O          62.3069   85.0651   17.3265 O.2     1  UNL1       -0.2264
     14 H          62.1628   82.5182   16.2255 H       1  UNL1        0.1527
     15 O          63.0700   85.6134   14.9043 O.3     1  UNL1       -0.4291
     16 C          64.2041   86.5440   15.2172 C.3     1  UNL1        0.2447
     17 C          63.9225   87.9631   15.6134 C.ar    1  UNL1        0.0714
     18 C          63.0742   88.4041   16.7691 C.ar    1  UNL1        0.1053
     19 N          63.0673   89.9038   16.7933 N.ar    1  UNL1       -0.2350
     20 C          63.9113   90.3897   15.6526 C.ar    1  UNL1        0.1343
     21 S          64.4399   89.1903   14.9233 S.2     1  UNL1       -0.0652
     22 C          61.2361   80.6273   14.0987 C.3     1  UNL1        0.0017
     23 C          61.8037   81.8400   13.4227 C.3     1  UNL1        0.0197
     24 C          60.9970   86.4227    9.0465 C.3     1  UNL1        0.1496
     25 N          60.5710   87.6041    9.8668 N.am    1  UNL1       -0.2824
     26 C          61.5452   88.2599   10.8000 C.2     1  UNL1        0.3046
     27 O          62.9455   87.7342   10.9129 O.2     1  UNL1       -0.2526
     28 N          61.1192   89.4413   11.6202 N.am    1  UNL1       -0.2567
     29 C          59.7188   89.9670   11.5073 C.3     1  UNL1        0.1168
     30 H          59.6519   87.9491    9.7926 H       1  UNL1        0.1514
     31 C          62.0935   90.0970   12.5534 C.3     1  UNL1        0.1413
     32 C          63.1516   91.0117   12.0115 C.ar    1  UNL1        0.0858
     33 C          63.4620   91.2396   10.5618 C.ar    1  UNL1        0.0530
     34 S          64.5874   92.2279   10.4785 S.2     1  UNL1       -0.0705
     35 C          64.9724   92.6108   11.8768 C.ar    1  UNL1        0.0875
     36 N          64.0851   91.8592   12.8242 N.ar    1  UNL1       -0.2453
     37 C          66.0548   93.5759   12.2602 C.3     1  UNL1        0.0465
     38 C          66.7519   93.4350   13.5809 C.3     1  UNL1        0.0069
     39 C          66.4400   94.6819   11.3230 C.3     1  UNL1        0.0069
     40 C          60.2223   86.0431    7.8195 C.3     1  UNL1        0.0270
     41 C          58.8814   86.6624    7.5576 C.3     1  UNL1        0.0022
     42 C          60.7885   85.0442    6.8542 C.3     1  UNL1        0.0022
@<TRIPOS>BOND
     1    22    23    1
     2    10    23    1
     3    10     9    1
     4     9     8    1
     5     5     8    1
     6     5     6    1
     7     6     7    1
     8     5     1    1
     9     1     2   am
    10     2     3    2
    11     2    24    1
    12    24    25    1
    13    25    26   am
    14    26    27    2
    15    26    28   am
    16    28    29    1
    17    28    31    1
    18    31    32    1
    19    32    33   ar
    20    33    34   ar
    21    34    35   ar
    22    35    37    1
    23    37    38    1
    24    37    39    1
    25    35    36   ar
    26    24    40    1
    27    40    41    1
    28    40    42    1
    29    10    11    1
    30    11    12   am
    31    12    13    2
    32    12    15    1
    33    15    16    1
    34    16    17    1
    35    17    18   ar
    36    18    19   ar
    37    19    20   ar
    38    20    21   ar
    39    36    32   ar
    40    21    17   ar
    41     1     4    1
    42    25    30    1
    43    11    14    1
@<TRIPOS>MOLECULE
*****
 42 43 0 0 0
SMALL
GASTEIGER

@<TRIPOS>ATOM
      1 N          62.3114   87.0739    9.4041 N.am    1  UNL1       -0.3046
      2 C          61.7080   87.2650   10.7641 C.2     1  UNL1        0.2403
      3 O          61.2999   86.0729   11.5778 O.2     1  UNL1       -0.2733
      4 H          62.5793   87.8564    8.8701 H       1  UNL1        0.1494
      5 C          62.5066   85.6906    8.8579 C.3     1  UNL1        0.0717
      6 C          61.8273   85.2846    7.5837 C.3     1  UNL1        0.0196
      7 C          62.6048   84.5829    6.5098 C.3     1  UNL1        0.0017
      8 C          63.3812   84.7134    9.5859 C.3     1  UNL1        0.0213
      9 C          62.7982   83.4391   10.1209 C.3     1  UNL1        0.0214
     10 C          63.5732   82.6154   11.1064 C.3     1  UNL1        0.0748
     11 N          64.7254   83.2232   11.8500 N.am    1  UNL1       -0.2723
     12 C          64.5035   83.8498   13.1946 C.2     1  UNL1        0.4019
     13 O          65.6557   84.4576   13.9382 O.2     1  UNL1       -0.2264
     14 H          65.6273   83.2109   11.4555 H       1  UNL1        0.1527
     15 O          63.1293   83.8685   13.7957 O.3     1  UNL1       -0.4291
     16 C          62.9628   83.9417   15.2846 C.3     1  UNL1        0.2447
     17 C          62.9995   85.2708   15.9791 C.ar    1  UNL1        0.0714
     18 C          63.7467   86.4866   15.5172 C.ar    1  UNL1        0.1053
     19 N          63.5043   87.5845   16.5101 N.ar    1  UNL1       -0.2350
     20 C          62.6073   87.0473   17.5855 C.ar    1  UNL1        0.1343
     21 S          62.2952   85.6173   17.2573 S.2     1  UNL1       -0.0652
     22 C          62.7491   80.7461   12.7114 C.3     1  UNL1        0.0017
     23 C          63.1959   81.1839   11.3481 C.3     1  UNL1        0.0197
     24 C          61.5129   88.6484   11.3102 C.3     1  UNL1        0.1496
     25 N          62.3988   89.1520   12.4109 N.am    1  UNL1       -0.2824
     26 C          63.1335   90.4497   12.2480 C.2     1  UNL1        0.3046
     27 O          62.9822   91.2436   10.9844 O.2     1  UNL1       -0.2526
     28 N          64.0194   90.9533   13.3487 N.am    1  UNL1       -0.2567
     29 C          64.1707   90.1592   14.6123 C.3     1  UNL1        0.1168
     30 H          62.4981   88.6309   13.2402 H       1  UNL1        0.1514
     31 C          64.7541   92.2509   13.1857 C.3     1  UNL1        0.1413
     32 C          66.0140   92.3025   12.3735 C.ar    1  UNL1        0.0858
     33 C          67.3813   91.8996   12.8406 C.ar    1  UNL1        0.0530
     34 S          68.3402   92.1143   11.7072 S.2     1  UNL1       -0.0705
     35 C          67.5656   92.6498   10.5397 C.ar    1  UNL1        0.0875
     36 N          66.1279   92.7662   10.9514 N.ar    1  UNL1       -0.2453
     37 C          68.1296   93.0064    9.1963 C.3     1  UNL1        0.0465
     38 C          68.9246   91.9954    8.4244 C.3     1  UNL1        0.0069
     39 C          67.8985   94.3739    8.6248 C.3     1  UNL1        0.0069
     40 C          60.4318   89.5281   10.7558 C.3     1  UNL1        0.0270
     41 C          59.5514   90.3104   11.6847 C.3     1  UNL1        0.0022
     42 C          60.2311   89.6255    9.2725 C.3     1  UNL1        0.0022
@<TRIPOS>BOND
     1    22    23    1
     2    10    23    1
     3    10     9    1
     4     9     8    1
     5     5     8    1
     6     5     6    1
     7     6     7    1
     8     5     1    1
     9     1     2   am
    10     2     3    2
    11     2    24    1
    12    24    25    1
    13    25    26   am
    14    26    27    2
    15    26    28   am
    16    28    29    1
    17    28    31    1
    18    31    32    1
    19    32    33   ar
    20    33    34   ar
    21    34    35   ar
    22    35    37    1
    23    37    38    1
    24    37    39    1
    25    35    36   ar
    26    24    40    1
    27    40    41    1
    28    40    42    1
    29    10    11    1
    30    11    12   am
    31    12    13    2
    32    12    15    1
    33    15    16    1
    34    16    17    1
    35    17    18   ar
    36    18    19   ar
    37    19    20   ar
    38    20    21   ar
    39    36    32   ar
    40    21    17   ar
    41     1     4    1
    42    25    30    1
    43    11    14    1
@<TRIPOS>MOLECULE
*****
 42 43 0 0 0
SMALL
GASTEIGER

@<TRIPOS>ATOM
      1 N          62.4202   86.7257    9.3946 N.am    1  UNL1       -0.3046
      2 C          61.7490   87.0707   10.6909 C.2     1  UNL1        0.2403
      3 O          61.4442   85.9923   11.6880 O.2     1  UNL1       -0.2733
      4 H          62.6202   87.4335    8.7402 H       1  UNL1        0.1494
      5 C          62.7867   85.3022    9.0954 C.3     1  UNL1        0.0717
      6 C          62.4100   84.6919    7.7780 C.3     1  UNL1        0.0196
      7 C          61.3198   85.3063    6.9510 C.3     1  UNL1        0.0017
      8 C          63.5298   84.4892   10.1136 C.3     1  UNL1        0.0213
      9 C          63.1268   83.0689   10.3784 C.3     1  UNL1        0.0214
     10 C          63.6290   82.3625   11.6028 C.3     1  UNL1        0.0748
     11 N          64.7977   82.9171   12.3622 N.am    1  UNL1       -0.2723
     12 C          64.5677   83.7930   13.5580 C.2     1  UNL1        0.4019
     13 O          65.7363   84.3475   14.3174 O.2     1  UNL1       -0.2264
     14 H          65.7157   82.7063   12.0757 H       1  UNL1        0.1527
     15 O          63.1690   84.1142   13.9943 O.3     1  UNL1       -0.4291
     16 C          62.8612   84.2977   15.4509 C.3     1  UNL1        0.2447
     17 C          62.9715   85.6571   16.0754 C.ar    1  UNL1        0.0714
     18 C          63.6350   86.8562   15.4658 C.ar    1  UNL1        0.1053
     19 N          63.5111   87.9962   16.4329 N.ar    1  UNL1       -0.2350
     20 C          62.7709   87.5016   17.6400 C.ar    1  UNL1        0.1343
     21 S          62.4374   86.0559   17.4192 S.2     1  UNL1       -0.0652
     22 C          61.9650   81.1494   13.1867 C.3     1  UNL1        0.0017
     23 C          62.9626   81.1017   12.0676 C.3     1  UNL1        0.0197
     24 C          61.3825   88.4942   10.9901 C.3     1  UNL1        0.1496
     25 N          62.1116   89.2465   12.0636 N.am    1  UNL1       -0.2824
     26 C          63.0489   90.3585   11.6959 C.2     1  UNL1        0.3046
     27 O          63.2570   90.7181   10.2546 O.2     1  UNL1       -0.2526
     28 N          63.7779   91.1108   12.7694 N.am    1  UNL1       -0.2567
     29 C          63.5698   90.7511   14.2108 C.3     1  UNL1        0.1168
     30 H          61.9750   89.0104   13.0096 H       1  UNL1        0.1514
     31 C          64.7151   92.2227   12.4016 C.3     1  UNL1        0.1413
     32 C          66.0899   92.2736   12.9996 C.ar    1  UNL1        0.0858
     33 C          67.3614   91.8538   12.3236 C.ar    1  UNL1        0.0530
     34 S          68.4918   92.0739   13.2848 S.2     1  UNL1       -0.0705
     35 C          67.9188   92.6298   14.5547 C.ar    1  UNL1        0.0875
     36 N          66.4343   92.7532   14.3785 N.ar    1  UNL1       -0.2453
     37 C          68.6942   92.9976   15.7849 C.3     1  UNL1        0.0465
     38 C          69.0708   94.4280   16.0343 C.3     1  UNL1        0.0069
     39 C          69.0930   91.9351   16.7658 C.3     1  UNL1        0.0069
     40 C          60.2871   89.1653   10.2159 C.3     1  UNL1        0.0270
     41 C          59.9843   88.7289    8.8130 C.3     1  UNL1        0.0022
     42 C          59.4944   90.2728   10.8444 C.3     1  UNL1        0.0022
@<TRIPOS>BOND
     1    22    23    1
     2    10    23    1
     3    10     9    1
     4     9     8    1
     5     5     8    1
     6     5     6    1
     7     6     7    1
     8     5     1    1
     9     1     2   am
    10     2     3    2
    11     2    24    1
    12    24    25    1
    13    25    26   am
    14    26    27    2
    15    26    28   am
    16    28    29    1
    17    28    31    1
    18    31    32    1
    19    32    33   ar
    20    33    34   ar
    21    34    35   ar
    22    35    37    1
    23    37    38    1
    24    37    39    1
    25    35    36   ar
    26    24    40    1
    27    40    41    1
    28    40    42    1
    29    10    11    1
    30    11    12   am
    31    12    13    2
    32    12    15    1
    33    15    16    1
    34    16    17    1
    35    17    18   ar
    36    18    19   ar
    37    19    20   ar
    38    20    21   ar
    39    36    32   ar
    40    21    17   ar
    41     1     4    1
    42    25    30    1
    43    11    14    1
@<TRIPOS>MOLECULE
*****
 42 43 0 0 0
SMALL
GASTEIGER

@<TRIPOS>ATOM
      1 N          63.2727   85.1871   13.0818 N.am    1  UNL1       -0.3046
      2 C          64.0065   84.0145   12.5016 C.2     1  UNL1        0.2403
      3 O          65.3455   83.6210   13.0512 O.2     1  UNL1       -0.2733
      4 H          62.3938   85.4453   12.7210 H       1  UNL1        0.1494
      5 C          63.8779   85.9661   14.2118 C.3     1  UNL1        0.0717
      6 C          64.4688   85.2460   15.3874 C.3     1  UNL1        0.0196
      7 C          63.7149   84.1225   16.0351 C.3     1  UNL1        0.0017
      8 C          63.8922   87.4653   14.1659 C.3     1  UNL1        0.0213
      9 C          64.2571   88.2496   15.3914 C.3     1  UNL1        0.0214
     10 C          63.2075   88.5791   16.4112 C.3     1  UNL1        0.0748
     11 N          62.9968   90.0016   16.8379 N.am    1  UNL1       -0.2723
     12 C          63.8785   91.0863   16.2940 C.2     1  UNL1        0.4019
     13 O          63.6678   92.5088   16.7207 O.2     1  UNL1       -0.2264
     14 H          62.2797   90.2233   17.4750 H       1  UNL1        0.1527
     15 O          64.9710   90.7485   15.3233 O.3     1  UNL1       -0.4291
     16 C          65.5640   91.8210   14.4585 C.3     1  UNL1        0.2447
     17 C          66.9693   92.2873   14.6993 C.ar    1  UNL1        0.0714
     18 C          68.1411   92.0612   13.7909 C.ar    1  UNL1        0.1053
     19 N          69.3454   92.6957   14.4210 N.ar    1  UNL1       -0.2350
     20 C          68.9178   93.3140   15.7190 C.ar    1  UNL1        0.1343
     21 S          67.4492   93.0616   15.8910 S.2     1  UNL1       -0.0652
     22 C          62.7974   86.8185   18.2772 C.3     1  UNL1        0.0017
     23 C          62.3687   87.4860   17.0042 C.3     1  UNL1        0.0197
     24 C          63.4011   83.2355   11.3716 C.3     1  UNL1        0.1496
     25 N          63.2020   83.8856   10.0346 N.am    1  UNL1       -0.2824
     26 C          62.1577   84.9490    9.8656 C.2     1  UNL1        0.3046
     27 O          61.3124   85.3624   11.0339 O.2     1  UNL1       -0.2526
     28 N          61.9585   85.5991    8.5286 N.am    1  UNL1       -0.2567
     29 C          62.8038   85.1858    7.3604 C.3     1  UNL1        0.1168
     30 H          63.7568   83.6143    9.2678 H       1  UNL1        0.1514
     31 C          60.9142   86.6625    8.3598 C.3     1  UNL1        0.1413
     32 C          61.0369   87.9591    9.1040 C.ar    1  UNL1        0.0858
     33 C          59.9449   88.9679    9.3036 C.ar    1  UNL1        0.0530
     34 S          60.5063   90.1067   10.1022 S.2     1  UNL1       -0.0705
     35 C          61.9452   89.8018   10.3962 C.ar    1  UNL1        0.0875
     36 N          62.2732   88.4745    9.7793 N.ar    1  UNL1       -0.2453
     37 C          62.8903   90.6715   11.1711 C.3     1  UNL1        0.0465
     38 C          63.7781   91.6423   10.4505 C.3     1  UNL1        0.0069
     39 C          62.9475   90.5705   12.6666 C.3     1  UNL1        0.0069
     40 C          62.9950   81.8065   11.5787 C.3     1  UNL1        0.0270
     41 C          63.1551   80.8126   10.4666 C.3     1  UNL1        0.0022
     42 C          62.4287   81.3713   12.8977 C.3     1  UNL1        0.0022
@<TRIPOS>BOND
     1    22    23    1
     2    10    23    1
     3    10     9    1
     4     9     8    1
     5     5     8    1
     6     5     6    1
     7     6     7    1
     8     5     1    1
     9     1     2   am
    10     2     3    2
    11     2    24    1
    12    24    25    1
    13    25    26   am
    14    26    27    2
    15    26    28   am
    16    28    29    1
    17    28    31    1
    18    31    32    1
    19    32    33   ar
    20    33    34   ar
    21    34    35   ar
    22    35    37    1
    23    37    38    1
    24    37    39    1
    25    35    36   ar
    26    24    40    1
    27    40    41    1
    28    40    42    1
    29    10    11    1
    30    11    12   am
    31    12    13    2
    32    12    15    1
    33    15    16    1
    34    16    17    1
    35    17    18   ar
    36    18    19   ar
    37    19    20   ar
    38    20    21   ar
    39    36    32   ar
    40    21    17   ar
    41     1     4    1
    42    25    30    1
    43    11    14    1
@<TRIPOS>MOLECULE
*****
 42 43 0 0 0
SMALL
GASTEIGER

@<TRIPOS>ATOM
      1 N          61.9203   88.6175    9.6655 N.am    1  UNL1       -0.3046
      2 C          61.1742   87.4152   10.1633 C.2     1  UNL1        0.2403
      3 O          60.3520   87.5078   11.4144 O.2     1  UNL1       -0.2733
      4 H          62.4599   88.5568    8.8443 H       1  UNL1        0.1494
      5 C          61.8442   89.9124   10.4188 C.3     1  UNL1        0.0717
      6 C          60.5116   90.4596   10.8370 C.3     1  UNL1        0.0196
      7 C          59.9184   90.0628   12.1563 C.3     1  UNL1        0.0017
      8 C          63.1006   90.6600   10.7539 C.3     1  UNL1        0.0213
      9 C          63.2525   91.3064   12.0990 C.3     1  UNL1        0.0214
     10 C          63.4191   90.4576   13.3245 C.3     1  UNL1        0.0748
     11 N          63.1441   91.0364   14.6808 N.am    1  UNL1       -0.2723
     12 C          64.2644   91.6246   15.4864 C.2     1  UNL1        0.4019
     13 O          63.9894   92.2034   16.8426 O.2     1  UNL1       -0.2264
     14 H          62.2284   91.0302   15.0421 H       1  UNL1        0.1527
     15 O          65.6596   91.6339   14.9357 O.3     1  UNL1       -0.4291
     16 C          66.2250   92.8922   14.3467 C.3     1  UNL1        0.2447
     17 C          66.6178   92.9325   12.8996 C.ar    1  UNL1        0.0714
     18 C          67.5889   92.0106   12.2236 C.ar    1  UNL1        0.1053
     19 N          67.6797   92.4101   10.7806 N.ar    1  UNL1       -0.2350
     20 C          66.7647   93.5789   10.5648 C.ar    1  UNL1        0.1343
     21 S          66.1084   93.9018   11.8744 S.2     1  UNL1       -0.0652
     22 C          64.6167   88.3736   14.3106 C.3     1  UNL1        0.0017
     23 C          63.8606   89.0300   13.1938 C.3     1  UNL1        0.0197
     24 C          61.2504   86.1204    9.4099 C.3     1  UNL1        0.1496
     25 N          61.9873   84.9533    9.9971 N.am    1  UNL1       -0.2824
     26 C          62.7785   85.1243   11.2600 C.2     1  UNL1        0.3046
     27 O          62.8328   86.4624   11.9356 O.2     1  UNL1       -0.2526
     28 N          63.5155   83.9572   11.8473 N.am    1  UNL1       -0.2567
     29 C          63.4612   82.6191   11.1716 C.3     1  UNL1        0.1168
     30 H          61.9517   84.0751    9.5537 H       1  UNL1        0.1514
     31 C          64.3066   84.1283   13.1101 C.3     1  UNL1        0.1413
     32 C          63.6210   84.5622   14.3717 C.ar    1  UNL1        0.0858
     33 C          62.5454   83.8073   15.0951 C.ar    1  UNL1        0.0530
     34 S          62.1503   84.6058   16.3019 S.2     1  UNL1       -0.0705
     35 C          62.9817   85.8541   16.3243 C.ar    1  UNL1        0.0875
     36 N          63.8906   85.8272   15.1314 N.ar    1  UNL1       -0.2453
     37 C          62.9156   86.9389   17.3582 C.3     1  UNL1        0.0465
     38 C          62.7608   86.5851   18.8076 C.3     1  UNL1        0.0069
     39 C          63.0044   88.3775   16.9426 C.3     1  UNL1        0.0069
     40 C          60.5896   85.9926    8.0693 C.3     1  UNL1        0.0270
     41 C          59.2812   86.6785    7.8097 C.3     1  UNL1        0.0022
     42 C          61.2374   85.1788    6.9885 C.3     1  UNL1        0.0022
@<TRIPOS>BOND
     1    22    23    1
     2    10    23    1
     3    10     9    1
     4     9     8    1
     5     5     8    1
     6     5     6    1
     7     6     7    1
     8     5     1    1
     9     1     2   am
    10     2     3    2
    11     2    24    1
    12    24    25    1
    13    25    26   am
    14    26    27    2
    15    26    28   am
    16    28    29    1
    17    28    31    1
    18    31    32    1
    19    32    33   ar
    20    33    34   ar
    21    34    35   ar
    22    35    37    1
    23    37    38    1
    24    37    39    1
    25    35    36   ar
    26    24    40    1
    27    40    41    1
    28    40    42    1
    29    10    11    1
    30    11    12   am
    31    12    13    2
    32    12    15    1
    33    15    16    1
    34    16    17    1
    35    17    18   ar
    36    18    19   ar
    37    19    20   ar
    38    20    21   ar
    39    36    32   ar
    40    21    17   ar
    41     1     4    1
    42    25    30    1
    43    11    14    1
