@<TRIPOS>MOLECULE
*****
 31 34 0 0 0
SMALL
GASTEIGER

@<TRIPOS>ATOM
      1 C          63.8757   90.6789   12.6474 C.ar    1  UNL1        0.1311
      2 C          63.8794   89.3277   13.2989 C.ar    1  UNL1        0.0339
      3 C          63.1117   88.1960   12.6827 C.ar    1  UNL1        0.0027
      4 C          62.3404   88.4153   11.4150 C.ar    1  UNL1        0.0283
      5 C          62.3368   89.7664   10.7635 C.ar    1  UNL1        0.2196
      6 F          61.5655   89.9857    9.4958 F       1  UNL1       -0.1835
      7 N          63.1044   90.8982   11.3798 N.ar    1  UNL1       -0.2035
      8 N          64.6433   91.8107   13.2636 N.pl3   1  UNL1       -0.3132
      9 H          64.1912   92.4379   13.8730 H       1  UNL1        0.1485
     10 C          66.0999   91.9870   12.9513 C.3     1  UNL1        0.1349
     11 C          67.3674   94.6820    9.5780 C.ar    1  UNL1        0.1850
     12 C          66.6047   95.2441   10.7408 C.ar    1  UNL1        0.1376
     13 N          66.1822   94.3457   11.8653 N.ar    1  UNL1       -0.2431
     14 C          66.5224   92.8853   11.8268 C.ar    1  UNL1        0.0813
     15 C          67.2852   92.3233   10.6639 C.ar    1  UNL1        0.0492
     16 C          67.7077   93.2216    9.5395 C.ar    1  UNL1        0.1766
     17 F          68.4705   92.6596    8.3766 F       1  UNL1       -0.2009
     18 C          67.0452   96.8559    8.1921 C.3     1  UNL1        0.2527
     19 O          67.7900   95.5803    8.4535 O.3     1  UNL1       -0.4676
     20 C          61.5727   87.2834   10.7988 C.3     1  UNL1        0.0582
     21 C          62.3024   86.0929   10.2508 C.ar    1  UNL1        0.0044
     22 C          62.6919   85.8802    8.8180 C.ar    1  UNL1        0.0966
     23 N          63.4009   84.5619    8.7212 N.ar    1  UNL1       -0.2273
     24 C          63.4496   83.9598   10.0942 C.ar    1  UNL1        0.1402
     25 N          64.0244   82.6722   10.6057 N.ar    1  UNL1       -0.3377
     26 C          63.9203   82.3309   12.0626 C.ar    1  UNL1        0.0691
     27 C          63.2414   83.2771   13.0080 C.ar    1  UNL1       -0.0047
     28 C          63.1374   82.9357   14.4650 C.3     1  UNL1        0.0326
     29 C          62.6666   84.5647   12.4965 C.ar    1  UNL1       -0.0001
     30 C          62.7707   84.9060   11.0396 C.ar    1  UNL1        0.0315
     31 H          64.4700   82.0512    9.9852 H       1  UNL1        0.1674
@<TRIPOS>BOND
     1    18    19    1
     2    19    11    1
     3    11    12   ar
     4    12    13   ar
     5    13    14   ar
     6    14    10    1
     7    10     8    1
     8     8     1    1
     9     1     2   ar
    10     2     3   ar
    11     3     4   ar
    12     4    20    1
    13    20    21    1
    14    21    22   ar
    15    22    23   ar
    16    23    24   ar
    17    24    25   ar
    18    25    26   ar
    19    26    27   ar
    20    27    28    1
    21    27    29   ar
    22    29    30   ar
    23     4     5   ar
    24     5     6    1
    25     5     7   ar
    26    14    15   ar
    27    15    16   ar
    28    16    17    1
    29    16    11   ar
    30     7     1   ar
    31    30    21   ar
    32    30    24    1
    33     8     9    1
    34    25    31    1
@<TRIPOS>MOLECULE
*****
 31 34 0 0 0
SMALL
GASTEIGER

@<TRIPOS>ATOM
      1 C          63.4526   83.8707   13.1596 C.ar    1  UNL1        0.1311
      2 C          62.3950   84.8959   12.8761 C.ar    1  UNL1        0.0339
      3 C          62.1140   85.3123   11.4628 C.ar    1  UNL1        0.0027
      4 C          62.8906   84.7036   10.3330 C.ar    1  UNL1        0.0283
      5 C          63.9482   83.6785   10.6165 C.ar    1  UNL1        0.2196
      6 F          64.7248   83.0698    9.4867 F       1  UNL1       -0.1835
      7 N          64.2292   83.2620   12.0299 N.ar    1  UNL1       -0.2035
      8 N          63.7336   83.4541   14.5730 N.pl3   1  UNL1       -0.3132
      9 H          63.3772   82.6027   14.9153 H       1  UNL1        0.1485
     10 C          64.5578   84.3348   15.4647 C.3     1  UNL1        0.1349
     11 C          63.3450   88.6147   16.1435 C.ar    1  UNL1        0.1850
     12 C          62.9165   87.5514   17.1108 C.ar    1  UNL1        0.1376
     13 N          63.3208   86.1247   16.8845 N.ar    1  UNL1       -0.2431
     14 C          64.1536   85.7615   15.6909 C.ar    1  UNL1        0.0813
     15 C          64.5821   86.8248   14.7237 C.ar    1  UNL1        0.0492
     16 C          64.1778   88.2515   14.9500 C.ar    1  UNL1        0.1766
     17 F          64.6063   89.3149   13.9827 F       1  UNL1       -0.2009
     18 C          63.9759   91.1268   16.3474 C.3     1  UNL1        0.2527
     19 O          62.9408   90.0414   16.3697 O.3     1  UNL1       -0.4676
     20 C          62.6095   85.1202    8.9196 C.3     1  UNL1        0.0582
     21 C          61.5414   86.1342    8.6348 C.ar    1  UNL1        0.0044
     22 C          60.3330   85.9231    7.7715 C.ar    1  UNL1        0.0966
     23 N          59.5390   87.1957    7.7666 N.ar    1  UNL1       -0.2273
     24 C          60.2567   88.1933    8.6267 C.ar    1  UNL1        0.1402
     25 N          59.9432   89.6143    8.9907 N.ar    1  UNL1       -0.3377
     26 C          60.8673   90.3791    9.8912 C.ar    1  UNL1        0.0691
     27 C          62.1048   89.7230   10.4278 C.ar    1  UNL1       -0.0047
     28 C          63.0289   90.4880   11.3284 C.3     1  UNL1        0.0326
     29 C          62.4183   88.3020   10.0639 C.ar    1  UNL1       -0.0001
     30 C          61.4943   87.5372    9.1633 C.ar    1  UNL1        0.0315
     31 H          59.1310   90.0449    8.6385 H       1  UNL1        0.1674
@<TRIPOS>BOND
     1    18    19    1
     2    19    11    1
     3    11    12   ar
     4    12    13   ar
     5    13    14   ar
     6    14    10    1
     7    10     8    1
     8     8     1    1
     9     1     2   ar
    10     2     3   ar
    11     3     4   ar
    12     4    20    1
    13    20    21    1
    14    21    22   ar
    15    22    23   ar
    16    23    24   ar
    17    24    25   ar
    18    25    26   ar
    19    26    27   ar
    20    27    28    1
    21    27    29   ar
    22    29    30   ar
    23     4     5   ar
    24     5     6    1
    25     5     7   ar
    26    14    15   ar
    27    15    16   ar
    28    16    17    1
    29    16    11   ar
    30     7     1   ar
    31    30    21   ar
    32    30    24    1
    33     8     9    1
    34    25    31    1
@<TRIPOS>MOLECULE
*****
 31 34 0 0 0
SMALL
GASTEIGER

@<TRIPOS>ATOM
      1 C          60.9664   87.4648    9.5525 C.ar    1  UNL1        0.1311
      2 C          61.0144   86.7873   10.8899 C.ar    1  UNL1        0.0339
      3 C          61.8504   85.5561   11.0773 C.ar    1  UNL1        0.0027
      4 C          62.6384   85.0023    9.9273 C.ar    1  UNL1        0.0283
      5 C          62.5904   85.6799    8.5899 C.ar    1  UNL1        0.2196
      6 F          63.3785   85.1261    7.4400 F       1  UNL1       -0.1835
      7 N          61.7545   86.9111    8.4025 N.ar    1  UNL1       -0.2035
      8 N          60.1305   88.6961    9.3650 N.pl3   1  UNL1       -0.3132
      9 H          59.5951   88.8076    8.5464 H       1  UNL1        0.1485
     10 C          60.1102   89.7575   10.4248 C.3     1  UNL1        0.1349
     11 C          63.9193   90.9165   12.5216 C.ar    1  UNL1        0.1850
     12 C          62.8613   90.1495   13.2580 C.ar    1  UNL1        0.1376
     13 N          61.5916   89.7632   12.5591 N.ar    1  UNL1       -0.2431
     14 C          61.3799   90.1438   11.1237 C.ar    1  UNL1        0.0813
     15 C          62.4379   90.9108   10.3873 C.ar    1  UNL1        0.0492
     16 C          63.7076   91.2972   11.0863 C.ar    1  UNL1        0.1766
     17 F          64.7656   92.0642   10.3499 F       1  UNL1       -0.2009
     18 C          65.2837   91.2016   14.7142 C.3     1  UNL1        0.2527
     19 O          65.1890   91.3029   13.2205 O.3     1  UNL1       -0.4676
     20 C          63.4744   83.7710   10.1148 C.3     1  UNL1        0.0582
     21 C          63.3298   82.9489   11.3610 C.ar    1  UNL1        0.0044
     22 C          62.9777   81.4920   11.4203 C.ar    1  UNL1        0.0966
     23 N          62.9422   81.0820   12.8627 N.ar    1  UNL1       -0.2273
     24 C          63.2723   82.2855   13.6950 C.ar    1  UNL1        0.1402
     25 N          63.3857   82.4798   15.1780 N.ar    1  UNL1       -0.3377
     26 C          63.7387   83.8279   15.7329 C.ar    1  UNL1        0.0691
     27 C          63.9783   84.9817   14.8048 C.ar    1  UNL1       -0.0047
     28 C          64.3313   86.3299   15.3597 C.3     1  UNL1        0.0326
     29 C          63.8649   84.7874   13.3218 C.ar    1  UNL1       -0.0001
     30 C          63.5119   83.4393   12.7669 C.ar    1  UNL1        0.0315
     31 H          63.2285   81.7226   15.7871 H       1  UNL1        0.1674
@<TRIPOS>BOND
     1    18    19    1
     2    19    11    1
     3    11    12   ar
     4    12    13   ar
     5    13    14   ar
     6    14    10    1
     7    10     8    1
     8     8     1    1
     9     1     2   ar
    10     2     3   ar
    11     3     4   ar
    12     4    20    1
    13    20    21    1
    14    21    22   ar
    15    22    23   ar
    16    23    24   ar
    17    24    25   ar
    18    25    26   ar
    19    26    27   ar
    20    27    28    1
    21    27    29   ar
    22    29    30   ar
    23     4     5   ar
    24     5     6    1
    25     5     7   ar
    26    14    15   ar
    27    15    16   ar
    28    16    17    1
    29    16    11   ar
    30     7     1   ar
    31    30    21   ar
    32    30    24    1
    33     8     9    1
    34    25    31    1
@<TRIPOS>MOLECULE
*****
 31 34 0 0 0
SMALL
GASTEIGER

@<TRIPOS>ATOM
      1 C          64.1553   85.3341   15.6153 C.ar    1  UNL1        0.1311
      2 C          64.6864   86.2384   14.5428 C.ar    1  UNL1        0.0339
      3 C          64.4685   87.7195   14.6348 C.ar    1  UNL1        0.0027
      4 C          63.7195   88.2966   15.7993 C.ar    1  UNL1        0.0283
      5 C          63.1884   87.3923   16.8719 C.ar    1  UNL1        0.2196
      6 F          62.4394   87.9694   18.0364 F       1  UNL1       -0.1835
      7 N          63.4063   85.9112   16.7798 N.ar    1  UNL1       -0.2035
      8 N          64.3732   83.8529   15.5234 N.pl3   1  UNL1       -0.3132
      9 H          65.0622   83.4213   16.0786 H       1  UNL1        0.1485
     10 C          63.5413   83.0292   14.5855 C.3     1  UNL1        0.1349
     11 C          63.2538   84.1679   10.2416 C.ar    1  UNL1        0.1850
     12 C          62.4295   84.8936   11.2633 C.ar    1  UNL1        0.1376
     13 N          62.5254   84.5140   12.7113 N.ar    1  UNL1       -0.2431
     14 C          63.4455   83.4087   13.1375 C.ar    1  UNL1        0.0813
     15 C          64.2698   82.6830   12.1158 C.ar    1  UNL1        0.0492
     16 C          64.1740   83.0626   10.6678 C.ar    1  UNL1        0.1766
     17 F          64.9983   82.3370    9.6461 F       1  UNL1       -0.2009
     18 C          62.3670   85.7548    8.3854 C.3     1  UNL1        0.2527
     19 O          63.1581   84.5474    8.7936 O.3     1  UNL1       -0.4676
     20 C          63.5016   89.7779   15.8913 C.3     1  UNL1        0.0582
     21 C          64.1947   90.6989   14.9315 C.ar    1  UNL1        0.0044
     22 C          65.2900   91.6655   15.2722 C.ar    1  UNL1        0.0966
     23 N          65.6865   92.3790   14.0137 N.ar    1  UNL1       -0.2273
     24 C          64.8362   91.8534   12.8953 C.ar    1  UNL1        0.1402
     25 N          64.7824   92.1862   11.4337 N.ar    1  UNL1       -0.3377
     26 C          63.8067   91.4805   10.5393 C.ar    1  UNL1        0.0691
     27 C          62.8847   90.4421   11.1066 C.ar    1  UNL1       -0.0047
     28 C          61.9089   89.7365   10.2121 C.3     1  UNL1        0.0326
     29 C          62.9385   90.1094   12.5682 C.ar    1  UNL1       -0.0001
     30 C          63.9143   90.8150   13.4625 C.ar    1  UNL1        0.0315
     31 H          65.3875   92.8677   11.0614 H       1  UNL1        0.1674
@<TRIPOS>BOND
     1    18    19    1
     2    19    11    1
     3    11    12   ar
     4    12    13   ar
     5    13    14   ar
     6    14    10    1
     7    10     8    1
     8     8     1    1
     9     1     2   ar
    10     2     3   ar
    11     3     4   ar
    12     4    20    1
    13    20    21    1
    14    21    22   ar
    15    22    23   ar
    16    23    24   ar
    17    24    25   ar
    18    25    26   ar
    19    26    27   ar
    20    27    28    1
    21    27    29   ar
    22    29    30   ar
    23     4     5   ar
    24     5     6    1
    25     5     7   ar
    26    14    15   ar
    27    15    16   ar
    28    16    17    1
    29    16    11   ar
    30     7     1   ar
    31    30    21   ar
    32    30    24    1
    33     8     9    1
    34    25    31    1
@<TRIPOS>MOLECULE
*****
 31 34 0 0 0
SMALL
GASTEIGER

@<TRIPOS>ATOM
      1 C          63.6241   89.4363   15.7576 C.ar    1  UNL1        0.1311
      2 C          64.2773   88.6567   14.6550 C.ar    1  UNL1        0.0339
      3 C          64.2862   87.1574   14.7002 C.ar    1  UNL1        0.0027
      4 C          63.6420   86.4377   15.8478 C.ar    1  UNL1        0.0283
      5 C          62.9889   87.2173   16.9504 C.ar    1  UNL1        0.2196
      6 F          62.3447   86.4976   18.0980 F       1  UNL1       -0.1835
      7 N          62.9800   88.7166   16.9052 N.ar    1  UNL1       -0.2035
      8 N          63.6152   90.9356   15.7126 N.pl3   1  UNL1       -0.3132
      9 H          62.7598   91.4230   15.7153 H       1  UNL1        0.1485
     10 C          64.9094   91.6923   15.6635 C.3     1  UNL1        0.1349
     11 C          67.0141   92.2974   11.7324 C.ar    1  UNL1        0.1850
     12 C          65.5276   92.4764   11.8226 C.ar    1  UNL1        0.1376
     13 N          64.8260   92.2747   13.1330 N.ar    1  UNL1       -0.2431
     14 C          65.6110   91.8940   14.3532 C.ar    1  UNL1        0.0813
     15 C          67.0976   91.7149   14.2629 C.ar    1  UNL1        0.0492
     16 C          67.7991   91.9166   12.9525 C.ar    1  UNL1        0.1766
     17 F          69.2856   91.7376   12.8623 F       1  UNL1       -0.2009
     18 C          67.6109   93.8151    9.7100 C.3     1  UNL1        0.2527
     19 O          67.7157   92.4991   10.4220 O.3     1  UNL1       -0.4676
     20 C          63.6509   84.9383   15.8928 C.3     1  UNL1        0.0582
     21 C          64.0128   84.1533   14.6669 C.ar    1  UNL1        0.0044
     22 C          65.1974   84.3993   13.7803 C.ar    1  UNL1        0.0966
     23 N          65.1703   83.3825   12.6779 N.ar    1  UNL1       -0.2273
     24 C          63.9689   82.5081   12.8832 C.ar    1  UNL1        0.1402
     25 N          63.4340   81.3397   12.1095 N.ar    1  UNL1       -0.3377
     26 C          62.1836   80.6476   12.5653 C.ar    1  UNL1        0.0691
     27 C          61.4683   81.1240   13.7946 C.ar    1  UNL1       -0.0047
     28 C          60.2179   80.4319   14.2503 C.3     1  UNL1        0.0326
     29 C          62.0032   82.2925   14.5682 C.ar    1  UNL1       -0.0001
     30 C          63.2535   82.9845   14.1125 C.ar    1  UNL1        0.0315
     31 H          63.9035   81.0270   11.3027 H       1  UNL1        0.1674
@<TRIPOS>BOND
     1    18    19    1
     2    19    11    1
     3    11    12   ar
     4    12    13   ar
     5    13    14   ar
     6    14    10    1
     7    10     8    1
     8     8     1    1
     9     1     2   ar
    10     2     3   ar
    11     3     4   ar
    12     4    20    1
    13    20    21    1
    14    21    22   ar
    15    22    23   ar
    16    23    24   ar
    17    24    25   ar
    18    25    26   ar
    19    26    27   ar
    20    27    28    1
    21    27    29   ar
    22    29    30   ar
    23     4     5   ar
    24     5     6    1
    25     5     7   ar
    26    14    15   ar
    27    15    16   ar
    28    16    17    1
    29    16    11   ar
    30     7     1   ar
    31    30    21   ar
    32    30    24    1
    33     8     9    1
    34    25    31    1
@<TRIPOS>MOLECULE
*****
 31 34 0 0 0
SMALL
GASTEIGER

@<TRIPOS>ATOM
      1 C          62.2733   89.7300   10.5894 C.ar    1  UNL1        0.1311
      2 C          62.8308   88.8162   11.6402 C.ar    1  UNL1        0.0339
      3 C          62.6503   87.3323   11.5159 C.ar    1  UNL1        0.0027
      4 C          61.9124   86.7622   10.3410 C.ar    1  UNL1        0.0283
      5 C          61.3548   87.6761    9.2903 C.ar    1  UNL1        0.2196
      6 F          60.6169   87.1060    8.1153 F       1  UNL1       -0.1835
      7 N          61.5353   89.1600    9.4145 N.ar    1  UNL1       -0.2035
      8 N          62.4537   91.2139   10.7136 N.pl3   1  UNL1       -0.3132
      9 H          61.6994   91.7795   10.9973 H       1  UNL1        0.1485
     10 C          63.7833   91.8363   10.4056 C.3     1  UNL1        0.1349
     11 C          66.4413   93.2384   13.7550 C.ar    1  UNL1        0.1850
     12 C          66.3837   94.0102   12.4701 C.ar    1  UNL1        0.1376
     13 N          65.4977   93.5427   11.3536 N.ar    1  UNL1       -0.2431
     14 C          64.6693   92.3036   11.5221 C.ar    1  UNL1        0.0813
     15 C          64.7270   91.5319   12.8071 C.ar    1  UNL1        0.0492
     16 C          65.6130   91.9993   13.9235 C.ar    1  UNL1        0.1766
     17 F          65.6707   91.2276   15.2085 F       1  UNL1       -0.2009
     18 C          68.5494   92.9176   15.2393 C.3     1  UNL1        0.2527
     19 O          67.3273   93.7058   14.8715 O.3     1  UNL1       -0.4676
     20 C          61.7319   85.2782   10.2168 C.3     1  UNL1        0.0582
     21 C          62.8005   84.3488   10.7111 C.ar    1  UNL1        0.0044
     22 C          63.7560   83.5700    9.8565 C.ar    1  UNL1        0.0966
     23 N          64.6472   82.7749   10.7640 N.ar    1  UNL1       -0.2273
     24 C          64.2424   83.0623   12.1795 C.ar    1  UNL1        0.1402
     25 N          64.7657   82.5639   13.4939 N.ar    1  UNL1       -0.3377
     26 C          64.1475   83.0382   14.7756 C.ar    1  UNL1        0.0691
     27 C          63.0062   84.0110   14.7429 C.ar    1  UNL1       -0.0047
     28 C          62.3880   84.4853   16.0248 C.3     1  UNL1        0.0326
     29 C          62.4829   84.5094   13.4285 C.ar    1  UNL1       -0.0001
     30 C          63.1011   84.0350   12.1468 C.ar    1  UNL1        0.0315
     31 H          65.5148   81.9254   13.5154 H       1  UNL1        0.1674
@<TRIPOS>BOND
     1    18    19    1
     2    19    11    1
     3    11    12   ar
     4    12    13   ar
     5    13    14   ar
     6    14    10    1
     7    10     8    1
     8     8     1    1
     9     1     2   ar
    10     2     3   ar
    11     3     4   ar
    12     4    20    1
    13    20    21    1
    14    21    22   ar
    15    22    23   ar
    16    23    24   ar
    17    24    25   ar
    18    25    26   ar
    19    26    27   ar
    20    27    28    1
    21    27    29   ar
    22    29    30   ar
    23     4     5   ar
    24     5     6    1
    25     5     7   ar
    26    14    15   ar
    27    15    16   ar
    28    16    17    1
    29    16    11   ar
    30     7     1   ar
    31    30    21   ar
    32    30    24    1
    33     8     9    1
    34    25    31    1
@<TRIPOS>MOLECULE
*****
 31 34 0 0 0
SMALL
GASTEIGER

@<TRIPOS>ATOM
      1 C          63.2078   86.5838   16.5227 C.ar    1  UNL1        0.1311
      2 C          62.0402   85.6422   16.5155 C.ar    1  UNL1        0.0339
      3 C          62.0826   84.4015   15.6736 C.ar    1  UNL1        0.0027
      4 C          63.2925   84.1024   14.8389 C.ar    1  UNL1        0.0283
      5 C          64.4601   85.0440   14.8461 C.ar    1  UNL1        0.2196
      6 F          65.6700   84.7449   14.0114 F       1  UNL1       -0.1835
      7 N          64.4177   86.2847   15.6880 N.ar    1  UNL1       -0.2035
      8 N          63.1655   87.8246   17.3645 N.pl3   1  UNL1       -0.3132
      9 H          63.4912   87.8005   18.2933 H       1  UNL1        0.1485
     10 C          62.6271   89.1019   16.7914 C.3     1  UNL1        0.1349
     11 C          64.9077   91.2586   13.5669 C.ar    1  UNL1        0.1850
     12 C          64.0458   90.0818   13.2169 C.ar    1  UNL1        0.1376
     13 N          63.2856   89.3630   14.2918 N.ar    1  UNL1       -0.2431
     14 C          63.3873   89.8208   15.7166 C.ar    1  UNL1        0.0813
     15 C          64.2491   90.9976   16.0665 C.ar    1  UNL1        0.0492
     16 C          65.0093   91.7165   14.9917 C.ar    1  UNL1        0.1766
     17 F          65.8712   92.8932   15.3416 F       1  UNL1       -0.2009
     18 C          64.9791   92.3643   11.2169 C.3     1  UNL1        0.2527
     19 O          65.6679   91.9775   12.4921 O.3     1  UNL1       -0.4676
     20 C          63.3348   82.8616   13.9970 C.3     1  UNL1        0.0582
     21 C          63.6390   82.9596   12.5314 C.ar    1  UNL1        0.0044
     22 C          64.5263   82.0354   11.7513 C.ar    1  UNL1        0.0966
     23 N          64.5449   82.5038   10.3265 N.ar    1  UNL1       -0.2273
     24 C          63.6692   83.7175   10.2259 C.ar    1  UNL1        0.1402
     25 N          63.3092   84.6024    9.0696 N.ar    1  UNL1       -0.3377
     26 C          62.3894   85.7691    9.2760 C.ar    1  UNL1        0.0691
     27 C          61.8294   86.0508   10.6387 C.ar    1  UNL1       -0.0047
     28 C          60.9095   87.2176   10.8451 C.3     1  UNL1        0.0326
     29 C          62.1894   85.1659   11.7951 C.ar    1  UNL1       -0.0001
     30 C          63.1092   83.9992   11.5887 C.ar    1  UNL1        0.0315
     31 H          63.6767   84.4175    8.1751 H       1  UNL1        0.1674
@<TRIPOS>BOND
     1    18    19    1
     2    19    11    1
     3    11    12   ar
     4    12    13   ar
     5    13    14   ar
     6    14    10    1
     7    10     8    1
     8     8     1    1
     9     1     2   ar
    10     2     3   ar
    11     3     4   ar
    12     4    20    1
    13    20    21    1
    14    21    22   ar
    15    22    23   ar
    16    23    24   ar
    17    24    25   ar
    18    25    26   ar
    19    26    27   ar
    20    27    28    1
    21    27    29   ar
    22    29    30   ar
    23     4     5   ar
    24     5     6    1
    25     5     7   ar
    26    14    15   ar
    27    15    16   ar
    28    16    17    1
    29    16    11   ar
    30     7     1   ar
    31    30    21   ar
    32    30    24    1
    33     8     9    1
    34    25    31    1
@<TRIPOS>MOLECULE
*****
 31 34 0 0 0
SMALL
GASTEIGER

@<TRIPOS>ATOM
      1 C          63.2099   90.9727   10.6971 C.ar    1  UNL1        0.1311
      2 C          62.2008   90.5114    9.6876 C.ar    1  UNL1        0.0339
      3 C          61.6216   89.1311    9.7830 C.ar    1  UNL1        0.0027
      4 C          62.0515   88.2120   10.8878 C.ar    1  UNL1        0.0283
      5 C          63.0605   88.6733   11.8973 C.ar    1  UNL1        0.2196
      6 F          63.4904   87.7542   13.0020 F       1  UNL1       -0.1835
      7 N          63.6397   90.0536   11.8019 N.ar    1  UNL1       -0.2035
      8 N          63.7892   92.3530   10.6018 N.pl3   1  UNL1       -0.3132
      9 H          63.1932   93.1362   10.5751 H       1  UNL1        0.1485
     10 C          65.2765   92.5402   10.5472 C.3     1  UNL1        0.1349
     11 C          67.6891   92.5065   14.3456 C.ar    1  UNL1        0.1850
     12 C          66.2739   93.0034   14.3604 C.ar    1  UNL1        0.1376
     13 N          65.4697   93.0147   13.0942 N.ar    1  UNL1       -0.2431
     14 C          66.0807   92.5290   11.8133 C.ar    1  UNL1        0.0813
     15 C          67.4960   92.0321   11.7985 C.ar    1  UNL1        0.0492
     16 C          68.3002   92.0208   13.0647 C.ar    1  UNL1        0.1766
     17 F          69.7154   91.5239   13.0499 F       1  UNL1       -0.2009
     18 C          69.1258   93.7610   16.1098 C.3     1  UNL1        0.2527
     19 O          68.4934   92.4953   15.6117 O.3     1  UNL1       -0.4676
     20 C          61.4722   86.8316   10.9831 C.3     1  UNL1        0.0582
     21 C          62.3015   85.6421   10.5993 C.ar    1  UNL1        0.0044
     22 C          62.7424   85.2858    9.2105 C.ar    1  UNL1        0.0966
     23 N          63.5489   84.0236    9.2897 N.ar    1  UNL1       -0.2273
     24 C          63.6063   83.5997   10.7274 C.ar    1  UNL1        0.1402
     25 N          64.2611   82.4321   11.4042 N.ar    1  UNL1       -0.3377
     26 C          64.1449   82.2648   12.8902 C.ar    1  UNL1        0.0691
     27 C          63.3739   83.2651   13.6996 C.ar    1  UNL1       -0.0047
     28 C          63.2577   83.0977   15.1857 C.3     1  UNL1        0.0326
     29 C          62.7192   84.4327   13.0229 C.ar    1  UNL1       -0.0001
     30 C          62.8354   84.6000   11.5368 C.ar    1  UNL1        0.0315
     31 H          64.7671   81.7755   10.8730 H       1  UNL1        0.1674
@<TRIPOS>BOND
     1    18    19    1
     2    19    11    1
     3    11    12   ar
     4    12    13   ar
     5    13    14   ar
     6    14    10    1
     7    10     8    1
     8     8     1    1
     9     1     2   ar
    10     2     3   ar
    11     3     4   ar
    12     4    20    1
    13    20    21    1
    14    21    22   ar
    15    22    23   ar
    16    23    24   ar
    17    24    25   ar
    18    25    26   ar
    19    26    27   ar
    20    27    28    1
    21    27    29   ar
    22    29    30   ar
    23     4     5   ar
    24     5     6    1
    25     5     7   ar
    26    14    15   ar
    27    15    16   ar
    28    16    17    1
    29    16    11   ar
    30     7     1   ar
    31    30    21   ar
    32    30    24    1
    33     8     9    1
    34    25    31    1
@<TRIPOS>MOLECULE
*****
 31 34 0 0 0
SMALL
GASTEIGER

@<TRIPOS>ATOM
      1 C          60.6668   87.5578    8.9249 C.ar    1  UNL1        0.1311
      2 C          61.0279   87.3901   10.3710 C.ar    1  UNL1        0.0339
      3 C          61.9686   86.2985   10.7873 C.ar    1  UNL1        0.0027
      4 C          62.5481   85.3745    9.7576 C.ar    1  UNL1        0.0283
      5 C          62.1869   85.5422    8.3114 C.ar    1  UNL1        0.2196
      6 F          62.7664   84.6182    7.2816 F       1  UNL1       -0.1835
      7 N          61.2462   86.6339    7.8951 N.ar    1  UNL1       -0.2035
      8 N          59.7261   88.6495    8.5085 N.pl3   1  UNL1       -0.3132
      9 H          59.5496   89.4050    9.1146 H       1  UNL1        0.1485
     10 C          59.0543   88.5902    7.1686 C.3     1  UNL1        0.1349
     11 C          59.3686   92.0739    4.3377 C.ar    1  UNL1        0.1850
     12 C          58.0432   91.7156    4.9417 C.ar    1  UNL1        0.1376
     13 N          57.9384   90.5543    5.8854 N.ar    1  UNL1       -0.2431
     14 C          59.1591   89.7514    6.2250 C.ar    1  UNL1        0.0813
     15 C          60.4845   90.1098    5.6210 C.ar    1  UNL1        0.0492
     16 C          60.5893   91.2710    4.6773 C.ar    1  UNL1        0.1766
     17 F          61.9147   91.6294    4.0733 F       1  UNL1       -0.2009
     18 C          59.6511   92.9936    1.9243 C.3     1  UNL1        0.2527
     19 O          59.4735   93.2352    3.3941 O.3     1  UNL1       -0.4676
     20 C          63.4888   84.2827   10.1740 C.3     1  UNL1        0.0582
     21 C          63.1483   83.4039   11.3408 C.ar    1  UNL1        0.0044
     22 C          62.6450   81.9929   11.2646 C.ar    1  UNL1        0.0966
     23 N          62.4369   81.4987   12.6655 N.ar    1  UNL1       -0.2273
     24 C          62.8116   82.6042   13.6075 C.ar    1  UNL1        0.1402
     25 N          62.8092   82.6908   15.1050 N.ar    1  UNL1       -0.3377
     26 C          63.2465   83.9549   15.7837 C.ar    1  UNL1        0.0691
     27 C          63.6862   85.1324   14.9651 C.ar    1  UNL1       -0.0047
     28 C          64.1235   86.3966   15.6439 C.3     1  UNL1        0.0326
     29 C          63.6885   85.0458   13.4676 C.ar    1  UNL1       -0.0001
     30 C          63.2512   83.7817   12.7888 C.ar    1  UNL1        0.0315
     31 H          62.5207   81.9180   15.6423 H       1  UNL1        0.1674
@<TRIPOS>BOND
     1    18    19    1
     2    19    11    1
     3    11    12   ar
     4    12    13   ar
     5    13    14   ar
     6    14    10    1
     7    10     8    1
     8     8     1    1
     9     1     2   ar
    10     2     3   ar
    11     3     4   ar
    12     4    20    1
    13    20    21    1
    14    21    22   ar
    15    22    23   ar
    16    23    24   ar
    17    24    25   ar
    18    25    26   ar
    19    26    27   ar
    20    27    28    1
    21    27    29   ar
    22    29    30   ar
    23     4     5   ar
    24     5     6    1
    25     5     7   ar
    26    14    15   ar
    27    15    16   ar
    28    16    17    1
    29    16    11   ar
    30     7     1   ar
    31    30    21   ar
    32    30    24    1
    33     8     9    1
    34    25    31    1
