@<TRIPOS>MOLECULE
*****
 38 41 0 0 0
SMALL
GASTEIGER

@<TRIPOS>ATOM
      1 N          61.6901   87.3976   10.9637 N.pl3   1  UNL1       -0.3316
      2 H          61.1531   87.4963   10.1445 H       1  UNL1        0.1468
      3 C          62.5118   88.5481   11.4649 C.ar    1  UNL1        0.0577
      4 C          63.3445   88.3919   12.7027 C.ar    1  UNL1        0.0462
      5 C          64.1663   89.5425   13.2038 C.ar    1  UNL1        0.1602
      6 F          64.9990   89.3864   14.4417 F       1  UNL1       -0.2027
      7 C          64.1552   90.8491   12.4672 C.ar    1  UNL1        0.1534
      8 C          63.3225   91.0052   11.2294 C.ar    1  UNL1        0.0351
      9 C          62.5008   89.8547   10.7282 C.ar    1  UNL1        0.0722
     10 CL         61.6681   90.0109    9.4904 Cl      1  UNL1       -0.0809
     11 S          64.9769   91.9995   12.9684 S.O2    1  UNL1        0.0772
     12 O          64.3612   91.8471   14.3277 O.2     1  UNL1       -0.1498
     13 O          65.5926   92.1519   11.6091 O.2     1  UNL1       -0.1498
     14 N          65.7986   93.1500   13.4696 N.pl3   1  UNL1       -0.1936
     15 H          65.5307   94.0741   13.2610 H       1  UNL1        0.1758
     16 C          67.0286   92.8925   14.2888 C.ar    1  UNL1        0.1786
     17 N          68.3682   92.4731   13.7601 N.ar    1  UNL1       -0.2214
     18 C          69.3024   92.3306   14.9250 C.ar    1  UNL1        0.1079
     19 C          68.5401   92.6620   16.1737 C.ar    1  UNL1        0.0588
     20 S          67.1348   93.0093   15.7805 S.2     1  UNL1       -0.0497
     21 C          61.6866   86.0968   11.7106 C.3     1  UNL1        0.0927
     22 C          62.8465   84.5986    9.9329 C.3     1  UNL1        0.0600
     23 C          63.8391   83.5300    9.5826 C.3     1  UNL1        0.0208
     24 C          64.6645   82.8909   10.6597 C.3     1  UNL1        0.0271
     25 C          64.4973   83.3204   12.0871 C.2     1  UNL1       -0.0303
     26 C          63.5047   84.3890   12.4374 C.2     1  UNL1       -0.0238
     27 C          62.6793   85.0281   11.3603 C.3     1  UNL1        0.0559
     28 C          63.3375   84.8186   13.8649 C.ar    1  UNL1       -0.0040
     29 C          62.2464   84.2232   14.7044 C.ar    1  UNL1        0.0020
     30 C          62.0792   84.6528   16.1319 C.ar    1  UNL1        0.0296
     31 C          63.0031   85.6778   16.7197 C.ar    1  UNL1        0.1401
     32 F          62.8360   86.1073   18.1471 F       1  UNL1       -0.2042
     33 C          64.0943   86.2732   15.8801 C.ar    1  UNL1        0.0296
     34 C          64.2615   85.8436   14.4528 C.ar    1  UNL1        0.0020
     35 N          62.0210   85.2377    8.8558 N.3     1  UNL1       -0.2982
     36 H          61.1205   84.7587    8.8516 H       1  UNL1        0.1232
     37 C          61.7545   84.5077    6.3767 C.3     1  UNL1        0.0185
     38 C          62.5135   85.2462    7.4390 C.3     1  UNL1        0.0686
@<TRIPOS>BOND
     1    37    38    1
     2    38    35    1
     3    22    35    1
     4    22    23    1
     5    23    24    1
     6    24    25    1
     7    25    26    2
     8    26    28    1
     9    28    29   ar
    10    29    30   ar
    11    30    31   ar
    12    31    32    1
    13    31    33   ar
    14    33    34   ar
    15    26    27    1
    16    27    21    1
    17    21     1    1
    18     1     3    1
    19     3     4   ar
    20     4     5   ar
    21     5     6    1
    22     5     7   ar
    23     7    11    1
    24    11    12    2
    25    11    13    2
    26    11    14    1
    27    14    16    1
    28    16    17   ar
    29    17    18   ar
    30    18    19   ar
    31    19    20   ar
    32     7     8   ar
    33     8     9   ar
    34     9    10    1
    35    27    22    1
    36     9     3   ar
    37    34    28   ar
    38    20    16   ar
    39    35    36    1
    40     1     2    1
    41    14    15    1
@<TRIPOS>MOLECULE
*****
 38 41 0 0 0
SMALL
GASTEIGER

@<TRIPOS>ATOM
      1 N          64.2564   89.8434   15.0702 N.pl3   1  UNL1       -0.3316
      2 H          64.9466   90.2316   15.6552 H       1  UNL1        0.1468
      3 C          63.9554   88.3755   15.1374 C.ar    1  UNL1        0.0577
      4 C          64.2088   87.5026   13.9441 C.ar    1  UNL1        0.0462
      5 C          63.9078   86.0346   14.0113 C.ar    1  UNL1        0.1602
      6 F          64.1611   85.1617   12.8181 F       1  UNL1       -0.2027
      7 C          63.3534   85.4395   15.2717 C.ar    1  UNL1        0.1534
      8 C          63.1000   86.3125   16.4649 C.ar    1  UNL1        0.0351
      9 C          63.4010   87.7804   16.3978 C.ar    1  UNL1        0.0722
     10 CL         63.1477   88.6533   17.5910 Cl      1  UNL1       -0.0809
     11 S          63.0524   83.9716   15.3388 S.O2    1  UNL1        0.0772
     12 O          64.5217   83.6719   15.3734 O.2     1  UNL1       -0.1498
     13 O          61.5831   84.2713   15.3042 O.2     1  UNL1       -0.1498
     14 N          62.7514   82.5036   15.4059 N.pl3   1  UNL1       -0.1936
     15 H          62.5765   82.0762   16.2754 H       1  UNL1        0.1758
     16 C          62.7170   81.6868   14.1483 C.ar    1  UNL1        0.1786
     17 N          62.6798   80.1893   14.0703 N.ar    1  UNL1       -0.2214
     18 C          62.6535   79.8011   12.6216 C.ar    1  UNL1        0.1079
     19 C          62.6743   81.0587   11.8043 C.ar    1  UNL1        0.0588
     20 S          62.7136   82.2242   12.7478 S.2     1  UNL1       -0.0497
     21 C          63.5059   90.7199   14.1119 C.3     1  UNL1        0.0927
     22 C          65.3730   92.3722   13.3814 C.3     1  UNL1        0.0600
     23 C          66.1102   93.1030   12.2986 C.3     1  UNL1        0.0208
     24 C          65.7174   92.9124   10.8635 C.3     1  UNL1        0.0271
     25 C          64.5875   91.9909   10.5112 C.2     1  UNL1       -0.0303
     26 C          63.8504   91.2601   11.5940 C.2     1  UNL1       -0.0238
     27 C          64.2431   91.4507   13.0291 C.3     1  UNL1        0.0559
     28 C          62.7204   90.3386   11.2417 C.ar    1  UNL1       -0.0040
     29 C          61.3759   90.9016   10.8879 C.ar    1  UNL1        0.0020
     30 C          60.2459   89.9801   10.5357 C.ar    1  UNL1        0.0296
     31 C          60.4605   88.4955   10.5373 C.ar    1  UNL1        0.1401
     32 F          59.3306   87.5740   10.1850 F       1  UNL1       -0.2042
     33 C          61.8051   87.9325   10.8911 C.ar    1  UNL1        0.0296
     34 C          62.9350   88.8540   11.2433 C.ar    1  UNL1        0.0020
     35 N          65.7658   92.5629   14.8164 N.3     1  UNL1       -0.2982
     36 H          65.0724   93.1853   15.2313 H       1  UNL1        0.1232
     37 C          68.0431   92.3621   16.0507 C.3     1  UNL1        0.0185
     38 C          67.1131   93.1275   15.1566 C.3     1  UNL1        0.0686
@<TRIPOS>BOND
     1    37    38    1
     2    38    35    1
     3    22    35    1
     4    22    23    1
     5    23    24    1
     6    24    25    1
     7    25    26    2
     8    26    28    1
     9    28    29   ar
    10    29    30   ar
    11    30    31   ar
    12    31    32    1
    13    31    33   ar
    14    33    34   ar
    15    26    27    1
    16    27    21    1
    17    21     1    1
    18     1     3    1
    19     3     4   ar
    20     4     5   ar
    21     5     6    1
    22     5     7   ar
    23     7    11    1
    24    11    12    2
    25    11    13    2
    26    11    14    1
    27    14    16    1
    28    16    17   ar
    29    17    18   ar
    30    18    19   ar
    31    19    20   ar
    32     7     8   ar
    33     8     9   ar
    34     9    10    1
    35    27    22    1
    36     9     3   ar
    37    34    28   ar
    38    20    16   ar
    39    35    36    1
    40     1     2    1
    41    14    15    1
@<TRIPOS>MOLECULE
*****
 38 41 0 0 0
SMALL
GASTEIGER

@<TRIPOS>ATOM
      1 N          61.4640   87.4317   10.9793 N.pl3   1  UNL1       -0.3316
      2 H          60.8110   87.4396   10.2425 H       1  UNL1        0.1468
      3 C          62.3024   88.6453   11.2514 C.ar    1  UNL1        0.0577
      4 C          63.2129   88.6761   12.4431 C.ar    1  UNL1        0.0462
      5 C          64.0513   89.8899   12.7152 C.ar    1  UNL1        0.1602
      6 F          64.9617   89.9207   13.9069 F       1  UNL1       -0.2027
      7 C          63.9793   91.0727   11.7956 C.ar    1  UNL1        0.1534
      8 C          63.0689   91.0419   10.6039 C.ar    1  UNL1        0.0351
      9 C          62.2304   89.8283   10.3318 C.ar    1  UNL1        0.0722
     10 CL         61.3200   89.7975    9.1401 Cl      1  UNL1       -0.0809
     11 S          64.8177   92.2863   12.0678 S.O2    1  UNL1        0.0772
     12 O          64.5210   92.1628   13.5329 O.2     1  UNL1       -0.1498
     13 O          65.1144   92.4099   10.6027 O.2     1  UNL1       -0.1498
     14 N          65.6561   93.5000   12.3400 N.pl3   1  UNL1       -0.1936
     15 H          65.7718   93.8215   13.2633 H       1  UNL1        0.1758
     16 C          66.3184   94.2239   11.2053 C.ar    1  UNL1        0.1786
     17 N          67.4722   93.7187   10.3908 N.ar    1  UNL1       -0.2214
     18 C          67.8100   94.7627    9.3681 C.ar    1  UNL1        0.1079
     19 C          66.8649   95.9132    9.5505 C.ar    1  UNL1        0.0588
     20 S          65.9430   95.5803   10.6860 S.2     1  UNL1       -0.0497
     21 C          61.6205   86.2060   11.8296 C.3     1  UNL1        0.0927
     22 C          62.7473   84.7286   10.0136 C.3     1  UNL1        0.0600
     23 C          63.7414   83.6724    9.6312 C.3     1  UNL1        0.0208
     24 C          64.6028   83.0374   10.6823 C.3     1  UNL1        0.0271
     25 C          64.4701   83.4586   12.1158 C.2     1  UNL1       -0.0303
     26 C          63.4761   84.5148   12.4982 C.2     1  UNL1       -0.0238
     27 C          62.6147   85.1497   11.4471 C.3     1  UNL1        0.0559
     28 C          63.3434   84.9360   13.9317 C.ar    1  UNL1       -0.0040
     29 C          62.3661   84.2387   14.8309 C.ar    1  UNL1        0.0020
     30 C          62.2334   84.6600   16.2645 C.ar    1  UNL1        0.0296
     31 C          63.0780   85.7785   16.7988 C.ar    1  UNL1        0.1401
     32 F          62.9454   86.1997   18.2323 F       1  UNL1       -0.2042
     33 C          64.0554   86.4758   15.8995 C.ar    1  UNL1        0.0296
     34 C          64.1880   86.0545   14.4660 C.ar    1  UNL1        0.0020
     35 N          61.8859   85.3635    8.9625 N.3     1  UNL1       -0.2982
     36 H          60.9782   84.9004    9.0065 H       1  UNL1        0.1232
     37 C          61.5007   84.5916    6.5119 C.3     1  UNL1        0.0185
     38 C          62.3153   85.3392    7.5256 C.3     1  UNL1        0.0686
@<TRIPOS>BOND
     1    37    38    1
     2    38    35    1
     3    22    35    1
     4    22    23    1
     5    23    24    1
     6    24    25    1
     7    25    26    2
     8    26    28    1
     9    28    29   ar
    10    29    30   ar
    11    30    31   ar
    12    31    32    1
    13    31    33   ar
    14    33    34   ar
    15    26    27    1
    16    27    21    1
    17    21     1    1
    18     1     3    1
    19     3     4   ar
    20     4     5   ar
    21     5     6    1
    22     5     7   ar
    23     7    11    1
    24    11    12    2
    25    11    13    2
    26    11    14    1
    27    14    16    1
    28    16    17   ar
    29    17    18   ar
    30    18    19   ar
    31    19    20   ar
    32     7     8   ar
    33     8     9   ar
    34     9    10    1
    35    27    22    1
    36     9     3   ar
    37    34    28   ar
    38    20    16   ar
    39    35    36    1
    40     1     2    1
    41    14    15    1
@<TRIPOS>MOLECULE
*****
 38 41 0 0 0
SMALL
GASTEIGER

@<TRIPOS>ATOM
      1 N          60.6668   88.0869   11.5736 N.pl3   1  UNL1       -0.3316
      2 H          59.7302   88.3840   11.5118 H       1  UNL1        0.1468
      3 C          61.7648   89.0960   11.7341 C.ar    1  UNL1        0.0577
      4 C          62.8137   88.9018   12.7886 C.ar    1  UNL1        0.0462
      5 C          63.9118   89.9111   12.9490 C.ar    1  UNL1        0.1602
      6 F          64.9607   89.7168   14.0036 F       1  UNL1       -0.2027
      7 C          63.9609   91.1145   12.0550 C.ar    1  UNL1        0.1534
      8 C          62.9120   91.3087   11.0005 C.ar    1  UNL1        0.0351
      9 C          61.8140   90.2995   10.8400 C.ar    1  UNL1        0.0722
     10 CL         60.7650   90.4938    9.7855 Cl      1  UNL1       -0.0809
     11 S          65.0590   92.1237   12.2155 S.O2    1  UNL1        0.0772
     12 O          65.4101   91.9723   10.7651 O.2     1  UNL1       -0.1498
     13 O          64.7079   92.2750   13.6659 O.2     1  UNL1       -0.1498
     14 N          66.1571   93.1329   12.3760 N.pl3   1  UNL1       -0.1936
     15 H          66.6219   93.2216   13.2393 H       1  UNL1        0.1758
     16 C          66.5470   94.0069   11.2210 C.ar    1  UNL1        0.1786
     17 N          67.6499   93.7339   10.2416 N.ar    1  UNL1       -0.2214
     18 C          67.6870   94.8657    9.2579 C.ar    1  UNL1        0.1079
     19 C          66.6071   95.8383    9.6294 C.ar    1  UNL1        0.0588
     20 S          65.9025   95.3076   10.8426 S.2     1  UNL1       -0.0497
     21 C          60.9956   86.6248   11.5072 C.3     1  UNL1        0.0927
     22 C          61.0895   86.5093    8.9134 C.3     1  UNL1        0.0600
     23 C          61.6715   85.9277    7.6592 C.3     1  UNL1        0.0208
     24 C          62.7415   84.8799    7.7446 C.3     1  UNL1        0.0271
     25 C          63.2295   84.4138    9.0842 C.2     1  UNL1       -0.0303
     26 C          62.6476   84.9954   10.3384 C.2     1  UNL1       -0.0238
     27 C          61.5776   86.0432   10.2529 C.3     1  UNL1        0.0559
     28 C          63.1356   84.5293   11.6780 C.ar    1  UNL1       -0.0040
     29 C          63.5057   85.5309   12.7315 C.ar    1  UNL1        0.0020
     30 C          63.9937   85.0648   14.0712 C.ar    1  UNL1        0.0296
     31 C          64.1116   83.5971   14.3573 C.ar    1  UNL1        0.1401
     32 F          64.5996   83.1310   15.6969 F       1  UNL1       -0.2042
     33 C          63.7415   82.5955   13.3037 C.ar    1  UNL1        0.0296
     34 C          63.2535   83.0616   11.9642 C.ar    1  UNL1        0.0020
     35 N          60.0195   87.5571    8.8279 N.3     1  UNL1       -0.2982
     36 H          59.3398   87.3440    9.5580 H       1  UNL1        0.1232
     37 C          59.3183   89.0377    6.8115 C.3     1  UNL1        0.0185
     38 C          59.2461   87.7372    7.5554 C.3     1  UNL1        0.0686
@<TRIPOS>BOND
     1    37    38    1
     2    38    35    1
     3    22    35    1
     4    22    23    1
     5    23    24    1
     6    24    25    1
     7    25    26    2
     8    26    28    1
     9    28    29   ar
    10    29    30   ar
    11    30    31   ar
    12    31    32    1
    13    31    33   ar
    14    33    34   ar
    15    26    27    1
    16    27    21    1
    17    21     1    1
    18     1     3    1
    19     3     4   ar
    20     4     5   ar
    21     5     6    1
    22     5     7   ar
    23     7    11    1
    24    11    12    2
    25    11    13    2
    26    11    14    1
    27    14    16    1
    28    16    17   ar
    29    17    18   ar
    30    18    19   ar
    31    19    20   ar
    32     7     8   ar
    33     8     9   ar
    34     9    10    1
    35    27    22    1
    36     9     3   ar
    37    34    28   ar
    38    20    16   ar
    39    35    36    1
    40     1     2    1
    41    14    15    1
@<TRIPOS>MOLECULE
*****
 38 41 0 0 0
SMALL
GASTEIGER

@<TRIPOS>ATOM
      1 N          64.4816   89.3957   15.2595 N.pl3   1  UNL1       -0.3316
      2 H          65.3519   89.6585   15.6375 H       1  UNL1        0.1468
      3 C          64.0834   87.9499   15.2279 C.ar    1  UNL1        0.0577
      4 C          64.3584   87.1227   14.0072 C.ar    1  UNL1        0.0462
      5 C          63.9601   85.6768   13.9757 C.ar    1  UNL1        0.1602
      6 F          64.2351   84.8497   12.7549 F       1  UNL1       -0.2027
      7 C          63.2870   85.0582   15.1648 C.ar    1  UNL1        0.1534
      8 C          63.0120   85.8854   16.3855 C.ar    1  UNL1        0.0351
      9 C          63.4102   87.3312   16.4171 C.ar    1  UNL1        0.0722
     10 CL         63.1353   88.1584   17.6378 Cl      1  UNL1       -0.0809
     11 S          62.8888   83.6124   15.1332 S.O2    1  UNL1        0.0772
     12 O          64.2982   83.2171   15.4605 O.2     1  UNL1       -0.1498
     13 O          61.4793   84.0078   14.8060 O.2     1  UNL1       -0.1498
     14 N          62.4906   82.1665   15.1017 N.pl3   1  UNL1       -0.1936
     15 H          62.1686   81.7266   15.9214 H       1  UNL1        0.1758
     16 C          62.5831   81.3910   13.8211 C.ar    1  UNL1        0.1786
     17 N          62.8847   81.9591   12.4660 N.ar    1  UNL1       -0.2214
     18 C          62.8782   80.8304   11.4781 C.ar    1  UNL1        0.1079
     19 C          62.5726   79.5646   12.2227 C.ar    1  UNL1        0.0588
     20 S          62.3902   79.9110   13.6707 S.2     1  UNL1       -0.0497
     21 C          63.5540   90.4412   14.7151 C.3     1  UNL1        0.0927
     22 C          62.5552   90.5144   12.3178 C.3     1  UNL1        0.0600
     23 C          62.6563   90.9317   10.8806 C.3     1  UNL1        0.0208
     24 C          63.8573   91.6933   10.4035 C.3     1  UNL1        0.0271
     25 C          64.9572   92.0375   11.3636 C.2     1  UNL1       -0.0303
     26 C          64.8561   91.6202   12.8007 C.2     1  UNL1       -0.0238
     27 C          63.6551   90.8586   13.2778 C.3     1  UNL1        0.0559
     28 C          65.9559   91.9644   13.7609 C.ar    1  UNL1       -0.0040
     29 C          65.6226   92.4724   15.1323 C.ar    1  UNL1        0.0020
     30 C          66.7225   92.8166   16.0924 C.ar    1  UNL1        0.0296
     31 C          68.1557   92.6527   15.6811 C.ar    1  UNL1        0.1401
     32 F          69.2556   92.9969   16.6412 F       1  UNL1       -0.2042
     33 C          68.4890   92.1447   14.3097 C.ar    1  UNL1        0.0296
     34 C          67.3891   91.8005   13.3496 C.ar    1  UNL1        0.0020
     35 N          61.3542   89.7528   12.7949 N.3     1  UNL1       -0.2982
     36 H          61.6634   88.7974   12.9739 H       1  UNL1        0.1232
     37 C          59.8396   88.3895   11.1834 C.3     1  UNL1        0.0185
     38 C          60.1335   89.6577   11.9284 C.3     1  UNL1        0.0686
@<TRIPOS>BOND
     1    37    38    1
     2    38    35    1
     3    22    35    1
     4    22    23    1
     5    23    24    1
     6    24    25    1
     7    25    26    2
     8    26    28    1
     9    28    29   ar
    10    29    30   ar
    11    30    31   ar
    12    31    32    1
    13    31    33   ar
    14    33    34   ar
    15    26    27    1
    16    27    21    1
    17    21     1    1
    18     1     3    1
    19     3     4   ar
    20     4     5   ar
    21     5     6    1
    22     5     7   ar
    23     7    11    1
    24    11    12    2
    25    11    13    2
    26    11    14    1
    27    14    16    1
    28    16    17   ar
    29    17    18   ar
    30    18    19   ar
    31    19    20   ar
    32     7     8   ar
    33     8     9   ar
    34     9    10    1
    35    27    22    1
    36     9     3   ar
    37    34    28   ar
    38    20    16   ar
    39    35    36    1
    40     1     2    1
    41    14    15    1
@<TRIPOS>MOLECULE
*****
 38 41 0 0 0
SMALL
GASTEIGER

@<TRIPOS>ATOM
      1 N          63.1490   90.9396   12.7616 N.pl3   1  UNL1       -0.3316
      2 H          62.4113   91.4437   13.1752 H       1  UNL1        0.1468
      3 C          62.9772   89.4836   12.4447 C.ar    1  UNL1        0.0577
      4 C          63.6874   88.4484   13.2657 C.ar    1  UNL1        0.0462
      5 C          63.5156   86.9923   12.9487 C.ar    1  UNL1        0.1602
      6 F          64.2257   85.9571   13.7697 F       1  UNL1       -0.2027
      7 C          62.6336   86.5715   11.8107 C.ar    1  UNL1        0.1534
      8 C          61.9235   87.6067   10.9897 C.ar    1  UNL1        0.0351
      9 C          62.0952   89.0627   11.3066 C.ar    1  UNL1        0.0722
     10 CL         61.3851   90.0978   10.4856 Cl      1  UNL1       -0.0809
     11 S          62.4619   85.1155   11.4937 S.O2    1  UNL1        0.0772
     12 O          61.9873   84.8665   12.8947 O.2     1  UNL1       -0.1498
     13 O          62.9364   85.3645   10.0928 O.2     1  UNL1       -0.1498
     14 N          62.2901   83.6594   11.1768 N.pl3   1  UNL1       -0.1936
     15 H          61.8639   83.3864   10.3324 H       1  UNL1        0.1758
     16 C          62.7677   82.6194   12.1464 C.ar    1  UNL1        0.1786
     17 N          61.9111   81.6048   12.8441 N.ar    1  UNL1       -0.2214
     18 C          62.7997   80.7697   13.7175 C.ar    1  UNL1        0.1079
     19 C          64.2056   81.2682   13.5597 C.ar    1  UNL1        0.0588
     20 S          64.1859   82.4114   12.5887 S.2     1  UNL1       -0.0497
     21 C          64.4446   91.6275   12.4486 C.3     1  UNL1        0.0927
     22 C          64.9487   91.8341   14.9889 C.3     1  UNL1        0.0600
     23 C          65.8498   92.2792   16.1024 C.3     1  UNL1        0.0208
     24 C          67.1477   92.9627   15.7892 C.3     1  UNL1        0.0271
     25 C          67.5447   93.2012   14.3625 C.2     1  UNL1       -0.0303
     26 C          66.6436   92.7561   13.2490 C.2     1  UNL1       -0.0238
     27 C          65.3456   92.0726   13.5622 C.3     1  UNL1        0.0559
     28 C          67.0405   92.9946   11.8222 C.ar    1  UNL1       -0.0040
     29 C          66.5261   94.1996   11.0920 C.ar    1  UNL1        0.0020
     30 C          66.9230   94.4381    9.6652 C.ar    1  UNL1        0.0296
     31 C          67.8343   93.4714    8.9687 C.ar    1  UNL1        0.1401
     32 F          68.2312   93.7098    7.5419 F       1  UNL1       -0.2042
     33 C          68.3487   92.2663    9.6989 C.ar    1  UNL1        0.0296
     34 C          67.9518   92.0280   11.1257 C.ar    1  UNL1        0.0020
     35 N          63.6508   91.1506   15.3021 N.3     1  UNL1       -0.2982
     36 H          62.9195   91.8574   15.2240 H       1  UNL1        0.1232
     37 C          63.1124   89.0163   16.6822 C.3     1  UNL1        0.0185
     38 C          63.4599   90.4745   16.6273 C.3     1  UNL1        0.0686
@<TRIPOS>BOND
     1    37    38    1
     2    38    35    1
     3    22    35    1
     4    22    23    1
     5    23    24    1
     6    24    25    1
     7    25    26    2
     8    26    28    1
     9    28    29   ar
    10    29    30   ar
    11    30    31   ar
    12    31    32    1
    13    31    33   ar
    14    33    34   ar
    15    26    27    1
    16    27    21    1
    17    21     1    1
    18     1     3    1
    19     3     4   ar
    20     4     5   ar
    21     5     6    1
    22     5     7   ar
    23     7    11    1
    24    11    12    2
    25    11    13    2
    26    11    14    1
    27    14    16    1
    28    16    17   ar
    29    17    18   ar
    30    18    19   ar
    31    19    20   ar
    32     7     8   ar
    33     8     9   ar
    34     9    10    1
    35    27    22    1
    36     9     3   ar
    37    34    28   ar
    38    20    16   ar
    39    35    36    1
    40     1     2    1
    41    14    15    1
@<TRIPOS>MOLECULE
*****
 38 41 0 0 0
SMALL
GASTEIGER

@<TRIPOS>ATOM
      1 N          63.0783   85.9216   12.3342 N.pl3   1  UNL1       -0.3316
      2 H          63.0630   84.9597   12.5432 H       1  UNL1        0.1468
      3 C          62.1933   86.4684   11.2536 C.ar    1  UNL1        0.0577
      4 C          61.2363   87.5822   11.5599 C.ar    1  UNL1        0.0462
      5 C          60.3513   88.1290   10.4792 C.ar    1  UNL1        0.1602
      6 F          59.3944   89.2428   10.7854 F       1  UNL1       -0.2027
      7 C          60.4233   87.5621    9.0923 C.ar    1  UNL1        0.1534
      8 C          61.3802   86.4484    8.7861 C.ar    1  UNL1        0.0351
      9 C          62.2652   85.9015    9.8667 C.ar    1  UNL1        0.0722
     10 CL         63.2222   84.7878    9.5604 Cl      1  UNL1       -0.0809
     11 S          59.5383   88.1089    8.0118 S.O2    1  UNL1        0.0772
     12 O          60.1271   89.4727    8.2197 O.2     1  UNL1       -0.1498
     13 O          58.9494   86.7451    7.8038 O.2     1  UNL1       -0.1498
     14 N          58.6532   88.6558    6.9311 N.pl3   1  UNL1       -0.1936
     15 H          57.7707   88.2518    6.7661 H       1  UNL1        0.1758
     16 C          59.1128   89.8183    6.1020 C.ar    1  UNL1        0.1786
     17 N          60.5180   90.0735    5.6435 N.ar    1  UNL1       -0.2214
     18 C          60.5215   91.3427    4.8440 C.ar    1  UNL1        0.1079
     19 C          59.1184   91.8719    4.8083 C.ar    1  UNL1        0.0588
     20 S          58.2477   90.9299    5.5858 S.2     1  UNL1       -0.0497
     21 C          63.9866   86.8404   13.0963 C.3     1  UNL1        0.0927
     22 C          63.3971   86.0636   15.5045 C.3     1  UNL1        0.0600
     23 C          63.1030   86.3890   16.9389 C.3     1  UNL1        0.0208
     24 C          63.1040   87.8165   17.3996 C.3     1  UNL1        0.0271
     25 C          63.3992   88.9186   16.4259 C.2     1  UNL1       -0.0303
     26 C          63.6934   88.5932   14.9915 C.2     1  UNL1       -0.0238
     27 C          63.6924   87.1657   14.5308 C.3     1  UNL1        0.0559
     28 C          63.9887   89.6954   14.0177 C.ar    1  UNL1       -0.0040
     29 C          63.1389   89.8616   12.7929 C.ar    1  UNL1        0.0020
     30 C          63.4341   90.9638   11.8191 C.ar    1  UNL1        0.0296
     31 C          64.5792   91.8996   12.0702 C.ar    1  UNL1        0.1401
     32 F          64.8745   93.0017   11.0965 F       1  UNL1       -0.2042
     33 C          65.4290   91.7333   13.2951 C.ar    1  UNL1        0.0296
     34 C          65.1337   90.6312   14.2688 C.ar    1  UNL1        0.0020
     35 N          63.3961   84.6361   15.0438 N.3     1  UNL1       -0.2982
     36 H          63.7211   84.6385   14.0770 H       1  UNL1        0.1232
     37 C          62.1002   82.4473   14.5151 C.3     1  UNL1        0.0185
     38 C          62.1251   83.8401   15.0714 C.3     1  UNL1        0.0686
@<TRIPOS>BOND
     1    37    38    1
     2    38    35    1
     3    22    35    1
     4    22    23    1
     5    23    24    1
     6    24    25    1
     7    25    26    2
     8    26    28    1
     9    28    29   ar
    10    29    30   ar
    11    30    31   ar
    12    31    32    1
    13    31    33   ar
    14    33    34   ar
    15    26    27    1
    16    27    21    1
    17    21     1    1
    18     1     3    1
    19     3     4   ar
    20     4     5   ar
    21     5     6    1
    22     5     7   ar
    23     7    11    1
    24    11    12    2
    25    11    13    2
    26    11    14    1
    27    14    16    1
    28    16    17   ar
    29    17    18   ar
    30    18    19   ar
    31    19    20   ar
    32     7     8   ar
    33     8     9   ar
    34     9    10    1
    35    27    22    1
    36     9     3   ar
    37    34    28   ar
    38    20    16   ar
    39    35    36    1
    40     1     2    1
    41    14    15    1
@<TRIPOS>MOLECULE
*****
 38 41 0 0 0
SMALL
GASTEIGER

@<TRIPOS>ATOM
      1 N          62.4459   87.0015   12.5260 N.pl3   1  UNL1       -0.3316
      2 H          62.6741   86.4211   13.2878 H       1  UNL1        0.1468
      3 C          63.0661   88.3621   12.4078 C.ar    1  UNL1        0.0577
      4 C          62.7266   89.2424   11.2416 C.ar    1  UNL1        0.0462
      5 C          63.3469   90.6031   11.1235 C.ar    1  UNL1        0.1602
      6 F          63.0074   91.4833    9.9573 F       1  UNL1       -0.2027
      7 C          64.3065   91.0835   12.1714 C.ar    1  UNL1        0.1534
      8 C          64.6460   90.2032   13.3376 C.ar    1  UNL1        0.0351
      9 C          64.0258   88.8426   13.4558 C.ar    1  UNL1        0.0722
     10 CL         64.3653   87.9624   14.6220 Cl      1  UNL1       -0.0809
     11 S          64.9267   92.4441   12.0532 S.O2    1  UNL1        0.0772
     12 O          65.0444   92.5202   13.5466 O.2     1  UNL1       -0.1498
     13 O          64.8090   92.3680   10.5598 O.2     1  UNL1       -0.1498
     14 N          65.5469   93.8048   11.9350 N.pl3   1  UNL1       -0.1936
     15 H          65.3230   94.5063   12.5885 H       1  UNL1        0.1758
     16 C          66.5082   94.0967   10.8211 C.ar    1  UNL1        0.1786
     17 N          67.6308   93.2098   10.3702 N.ar    1  UNL1       -0.2214
     18 C          68.3321   93.8916    9.2330 C.ar    1  UNL1        0.1079
     19 C          67.6430   95.2000    8.9811 C.ar    1  UNL1        0.0588
     20 S          66.5158   95.3267    9.9626 S.2     1  UNL1       -0.0497
     21 C          61.4782   86.5252   11.4836 C.3     1  UNL1        0.0927
     22 C          61.6391   86.4379    8.8920 C.3     1  UNL1        0.0600
     23 C          62.1459   85.7790    7.6434 C.3     1  UNL1        0.0208
     24 C          62.9986   84.5486    7.7378 C.3     1  UNL1        0.0271
     25 C          63.3446   83.9770    9.0808 C.2     1  UNL1       -0.0303
     26 C          62.8377   84.6359   10.3293 C.2     1  UNL1       -0.0238
     27 C          61.9850   85.8663   10.2350 C.3     1  UNL1        0.0559
     28 C          63.1837   84.0643   11.6724 C.ar    1  UNL1       -0.0040
     29 C          62.4106   82.8981   12.2129 C.ar    1  UNL1        0.0020
     30 C          62.7565   82.3265   13.5559 C.ar    1  UNL1        0.0296
     31 C          63.8755   82.9213   14.3585 C.ar    1  UNL1        0.1401
     32 F          64.2214   82.3498   15.7015 F       1  UNL1       -0.2042
     33 C          64.6486   84.0876   13.8179 C.ar    1  UNL1        0.0296
     34 C          64.3027   84.6591   12.4749 C.ar    1  UNL1        0.0020
     35 N          60.7864   87.6683    8.7976 N.3     1  UNL1       -0.2982
     36 H          60.5358   87.9268    9.7520 H       1  UNL1        0.1232
     37 C          59.1921   88.7531    7.0565 C.3     1  UNL1        0.0185
     38 C          59.5113   87.6384    8.0081 C.3     1  UNL1        0.0686
@<TRIPOS>BOND
     1    37    38    1
     2    38    35    1
     3    22    35    1
     4    22    23    1
     5    23    24    1
     6    24    25    1
     7    25    26    2
     8    26    28    1
     9    28    29   ar
    10    29    30   ar
    11    30    31   ar
    12    31    32    1
    13    31    33   ar
    14    33    34   ar
    15    26    27    1
    16    27    21    1
    17    21     1    1
    18     1     3    1
    19     3     4   ar
    20     4     5   ar
    21     5     6    1
    22     5     7   ar
    23     7    11    1
    24    11    12    2
    25    11    13    2
    26    11    14    1
    27    14    16    1
    28    16    17   ar
    29    17    18   ar
    30    18    19   ar
    31    19    20   ar
    32     7     8   ar
    33     8     9   ar
    34     9    10    1
    35    27    22    1
    36     9     3   ar
    37    34    28   ar
    38    20    16   ar
    39    35    36    1
    40     1     2    1
    41    14    15    1
@<TRIPOS>MOLECULE
*****
 38 41 0 0 0
SMALL
GASTEIGER

@<TRIPOS>ATOM
      1 N          63.2565   88.6742   13.6269 N.pl3   1  UNL1       -0.3316
      2 H          62.9551   88.6212   14.5627 H       1  UNL1        0.1468
      3 C          64.0042   89.8828   13.1471 C.ar    1  UNL1        0.0577
      4 C          63.6662   90.4962   11.8207 C.ar    1  UNL1        0.0462
      5 C          64.4139   91.7048   11.3409 C.ar    1  UNL1        0.1602
      6 F          64.0759   92.3182   10.0144 F       1  UNL1       -0.2027
      7 C          65.4997   92.2999   12.1876 C.ar    1  UNL1        0.1534
      8 C          65.8377   91.6865   13.5140 C.ar    1  UNL1        0.0351
      9 C          65.0900   90.4780   13.9938 C.ar    1  UNL1        0.0722
     10 CL         65.4280   89.8646   15.3203 Cl      1  UNL1       -0.0809
     11 S          66.2474   93.5085   11.7078 S.O2    1  UNL1        0.0772
     12 O          65.9724   94.1964   13.0120 O.2     1  UNL1       -0.1498
     13 O          66.5225   92.8205   10.4035 O.2     1  UNL1       -0.1498
     14 N          66.9952   94.7171   11.2280 N.pl3   1  UNL1       -0.1936
     15 H          67.8436   94.9733   11.6566 H       1  UNL1        0.1758
     16 C          66.4502   95.5354   10.0951 C.ar    1  UNL1        0.1786
     17 N          65.0656   96.1056   10.0056 N.ar    1  UNL1       -0.2214
     18 C          64.9538   96.8498    8.7080 C.ar    1  UNL1        0.1079
     19 C          66.2692   96.7395    7.9956 C.ar    1  UNL1        0.0588
     20 S          67.1940   95.9272    8.8528 S.2     1  UNL1       -0.0497
     21 C          62.9679   87.5464   12.6811 C.3     1  UNL1        0.0927
     22 C          63.8038   85.8418   14.4546 C.3     1  UNL1        0.0600
     23 C          64.1173   84.4300   14.8529 C.3     1  UNL1        0.0208
     24 C          63.9084   83.3111   13.8760 C.3     1  UNL1        0.0271
     25 C          63.3860   83.6039   12.5008 C.2     1  UNL1       -0.0303
     26 C          63.0725   85.0157   12.1025 C.2     1  UNL1       -0.0238
     27 C          63.2814   86.1346   13.0794 C.3     1  UNL1        0.0559
     28 C          62.5500   85.3085   10.7272 C.ar    1  UNL1       -0.0040
     29 C          63.2876   84.8055    9.5219 C.ar    1  UNL1        0.0020
     30 C          62.7651   85.0984    8.1466 C.ar    1  UNL1        0.0296
     31 C          61.5051   85.8943    7.9767 C.ar    1  UNL1        0.1401
     32 F          60.9827   86.1872    6.6015 F       1  UNL1       -0.2042
     33 C          60.7676   86.3974    9.1822 C.ar    1  UNL1        0.0296
     34 C          61.2900   86.1045   10.5573 C.ar    1  UNL1        0.0020
     35 N          64.0127   86.9607   15.4316 N.3     1  UNL1       -0.2982
     36 H          65.0206   87.0909   15.5189 H       1  UNL1        0.1232
     37 C          62.1073   86.2630   17.0540 C.3     1  UNL1        0.0185
     38 C          63.4679   86.8514   16.8248 C.3     1  UNL1        0.0686
@<TRIPOS>BOND
     1    37    38    1
     2    38    35    1
     3    22    35    1
     4    22    23    1
     5    23    24    1
     6    24    25    1
     7    25    26    2
     8    26    28    1
     9    28    29   ar
    10    29    30   ar
    11    30    31   ar
    12    31    32    1
    13    31    33   ar
    14    33    34   ar
    15    26    27    1
    16    27    21    1
    17    21     1    1
    18     1     3    1
    19     3     4   ar
    20     4     5   ar
    21     5     6    1
    22     5     7   ar
    23     7    11    1
    24    11    12    2
    25    11    13    2
    26    11    14    1
    27    14    16    1
    28    16    17   ar
    29    17    18   ar
    30    18    19   ar
    31    19    20   ar
    32     7     8   ar
    33     8     9   ar
    34     9    10    1
    35    27    22    1
    36     9     3   ar
    37    34    28   ar
    38    20    16   ar
    39    35    36    1
    40     1     2    1
    41    14    15    1
