@<TRIPOS>MOLECULE
*****
 21 23 0 0 0
SMALL
GASTEIGER

@<TRIPOS>ATOM
      1 C          62.6047   88.7687   11.4821 C.2     1  UNL1        0.3688
      2 N          61.7696   89.4213   10.4207 N.2     1  UNL1       -0.0400
      3 C          60.9435   88.5799    9.4933 C.2     1  UNL1        0.1818
      4 C          60.1084   89.2326    8.4319 C.3     1  UNL1        0.1000
      5 C          59.2824   88.3912    7.5047 C.2     1  UNL1       -0.0174
      6 C          59.2915   86.8973    7.6389 C.2     1  UNL1       -0.0038
      7 C          60.1266   86.2446    8.7003 C.2     1  UNL1        0.0101
      8 C          60.9526   87.0860    9.6275 C.2     1  UNL1        0.1209
      9 C          61.7878   86.4334   10.6890 C.2     1  UNL1        0.3788
     10 O          61.7969   84.9394   10.8232 O.2     1  UNL1       -0.2376
     11 N          62.6138   87.2747   11.6162 N.am    1  UNL1        0.0364
     12 C          65.0828   91.2926   14.2639 C.ar    1  UNL1        0.1401
     13 C          64.6356   91.8487   12.9445 C.ar    1  UNL1        0.0372
     14 C          63.8096   91.0074   12.0173 C.ar    1  UNL1        0.0106
     15 C          63.4308   89.6100   12.4094 C.ar    1  UNL1        0.0866
     16 C          63.8780   89.0539   13.7287 C.ar    1  UNL1        0.0106
     17 C          64.7040   89.8952   14.6560 C.ar    1  UNL1        0.0372
     18 O          65.9089   92.1339   15.1912 O.3     1  UNL1       -0.4612
     19 C          67.3849   91.8936   15.3076 C.3     1  UNL1        0.2820
     20 C          69.2129   94.1393   16.0923 C.1     1  UNL1       -0.0105
     21 C          68.2989   93.0164   15.7000 C.1     1  UNL1       -0.0307
@<TRIPOS>BOND
     1    20    21    3
     2    21    19    1
     3    19    18    1
     4    18    12    1
     5    12    13   ar
     6    13    14   ar
     7    14    15   ar
     8    15     1    1
     9     1     2    1
    10     2     3    2
    11     3     4    1
    12     4     5    1
    13     5     6    2
    14     6     7    1
    15     7     8    2
    16     8     9    1
    17     9    10    2
    18     9    11    1
    19    15    16   ar
    20    16    17   ar
    21    17    12   ar
    22    11     1    2
    23     8     3    1
@<TRIPOS>MOLECULE
*****
 21 23 0 0 0
SMALL
GASTEIGER

@<TRIPOS>ATOM
      1 C          63.6003   90.2069   12.9906 C.2     1  UNL1        0.3688
      2 N          64.8638   90.9604   12.6978 N.2     1  UNL1       -0.0400
      3 C          65.6004   91.6498   13.8079 C.2     1  UNL1        0.1818
      4 C          66.8639   92.4033   13.5150 C.3     1  UNL1        0.1000
      5 C          67.6004   93.0926   14.6251 C.2     1  UNL1       -0.0174
      6 C          67.0733   93.0286   16.0280 C.2     1  UNL1       -0.0038
      7 C          65.8098   92.2751   16.3208 C.2     1  UNL1        0.0101
      8 C          65.0733   91.5857   15.2108 C.2     1  UNL1        0.1209
      9 C          63.8098   90.8322   15.5036 C.2     1  UNL1        0.3788
     10 O          63.2827   90.7681   16.9065 O.2     1  UNL1       -0.2376
     11 N          63.0733   90.1428   14.3935 N.am    1  UNL1        0.0364
     12 C          61.3907   88.1388    9.6604 C.ar    1  UNL1        0.1401
     13 C          62.0593   87.3302   10.7324 C.ar    1  UNL1        0.0372
     14 C          62.7958   88.0195   11.8424 C.ar    1  UNL1        0.0106
     15 C          62.8637   89.5175   11.8805 C.ar    1  UNL1        0.0866
     16 C          62.1951   90.3261   10.8085 C.ar    1  UNL1        0.0106
     17 C          61.4586   89.6367    9.6985 C.ar    1  UNL1        0.0372
     18 O          60.6541   87.4493    8.5503 O.3     1  UNL1       -0.4612
     19 C          59.3354   87.9862    8.0784 C.3     1  UNL1        0.2820
     20 C          59.2487   90.0564    5.9088 C.1     1  UNL1       -0.0105
     21 C          59.2920   89.0213    6.9936 C.1     1  UNL1       -0.0307
@<TRIPOS>BOND
     1    20    21    3
     2    21    19    1
     3    19    18    1
     4    18    12    1
     5    12    13   ar
     6    13    14   ar
     7    14    15   ar
     8    15     1    1
     9     1     2    1
    10     2     3    2
    11     3     4    1
    12     4     5    1
    13     5     6    2
    14     6     7    1
    15     7     8    2
    16     8     9    1
    17     9    10    2
    18     9    11    1
    19    15    16   ar
    20    16    17   ar
    21    17    12   ar
    22    11     1    2
    23     8     3    1
@<TRIPOS>MOLECULE
*****
 21 23 0 0 0
SMALL
GASTEIGER

@<TRIPOS>ATOM
      1 C          63.2698   90.2661   12.8558 C.2     1  UNL1        0.3688
      2 N          64.5053   91.0497   12.5249 N.2     1  UNL1       -0.0400
      3 C          65.3190   91.6665   13.6238 C.2     1  UNL1        0.1818
      4 C          66.5544   92.4502   13.2928 C.3     1  UNL1        0.1000
      5 C          67.3681   93.0669   14.3917 C.2     1  UNL1       -0.0174
      6 C          66.9463   92.9000   15.8215 C.2     1  UNL1       -0.0038
      7 C          65.7109   92.1163   16.1524 C.2     1  UNL1        0.0101
      8 C          64.8973   91.4996   15.0535 C.2     1  UNL1        0.1209
      9 C          63.6618   90.7159   15.3844 C.2     1  UNL1        0.3788
     10 O          63.2400   90.5489   16.8142 O.2     1  UNL1       -0.2376
     11 N          62.8481   90.0991   14.2856 N.am    1  UNL1        0.0364
     12 C          60.8288   88.4157    9.5593 C.ar    1  UNL1        0.1401
     13 C          60.5843   89.8389    9.9652 C.ar    1  UNL1        0.0372
     14 C          61.3980   90.4557   11.0640 C.ar    1  UNL1        0.0106
     15 C          62.4561   89.6493   11.7569 C.ar    1  UNL1        0.0866
     16 C          62.7005   88.2261   11.3510 C.ar    1  UNL1        0.0106
     17 C          61.8868   87.6093   10.2522 C.ar    1  UNL1        0.0372
     18 O          60.0150   87.7989    8.4604 O.3     1  UNL1       -0.4612
     19 C          59.9427   86.3065    8.3278 C.3     1  UNL1        0.2820
     20 C          61.9489   84.8521    6.6366 C.1     1  UNL1       -0.0105
     21 C          60.9458   85.5793    7.4822 C.1     1  UNL1       -0.0307
@<TRIPOS>BOND
     1    20    21    3
     2    21    19    1
     3    19    18    1
     4    18    12    1
     5    12    13   ar
     6    13    14   ar
     7    14    15   ar
     8    15     1    1
     9     1     2    1
    10     2     3    2
    11     3     4    1
    12     4     5    1
    13     5     6    2
    14     6     7    1
    15     7     8    2
    16     8     9    1
    17     9    10    2
    18     9    11    1
    19    15    16   ar
    20    16    17   ar
    21    17    12   ar
    22    11     1    2
    23     8     3    1
@<TRIPOS>MOLECULE
*****
 21 23 0 0 0
SMALL
GASTEIGER

@<TRIPOS>ATOM
      1 C          62.0639   86.3818   11.2573 C.2     1  UNL1        0.3688
      2 N          62.1332   84.8940   11.4345 N.2     1  UNL1       -0.0400
      3 C          62.9086   84.3101   12.5782 C.2     1  UNL1        0.1818
      4 C          62.9779   82.8223   12.7553 C.3     1  UNL1        0.1000
      5 C          63.7533   82.2385   13.8989 C.2     1  UNL1       -0.0174
      6 C          64.4594   83.1426   14.8654 C.2     1  UNL1       -0.0038
      7 C          64.3901   84.6304   14.6883 C.2     1  UNL1        0.0101
      8 C          63.6147   85.2142   13.5446 C.2     1  UNL1        0.1209
      9 C          63.5454   86.7022   13.3674 C.2     1  UNL1        0.3788
     10 O          64.2514   87.6062   14.3339 O.2     1  UNL1       -0.2376
     11 N          62.7700   87.2859   12.2238 N.am    1  UNL1        0.0364
     12 C          59.7378   88.1334    7.8264 C.ar    1  UNL1        0.1401
     13 C          60.0328   86.6631    7.8595 C.ar    1  UNL1        0.0372
     14 C          60.8082   86.0792    9.0031 C.ar    1  UNL1        0.0106
     15 C          61.2885   86.9657   10.1136 C.ar    1  UNL1        0.0866
     16 C          60.9935   88.4360   10.0806 C.ar    1  UNL1        0.0106
     17 C          60.2181   89.0199    8.9370 C.ar    1  UNL1        0.0372
     18 O          58.9624   88.7173    6.6828 O.3     1  UNL1       -0.4612
     19 C          59.3937   90.0166    6.0699 C.3     1  UNL1        0.2820
     20 C          57.3728   91.7938    4.7442 C.1     1  UNL1       -0.0105
     21 C          58.3833   90.9052    5.4071 C.1     1  UNL1       -0.0307
@<TRIPOS>BOND
     1    20    21    3
     2    21    19    1
     3    19    18    1
     4    18    12    1
     5    12    13   ar
     6    13    14   ar
     7    14    15   ar
     8    15     1    1
     9     1     2    1
    10     2     3    2
    11     3     4    1
    12     4     5    1
    13     5     6    2
    14     6     7    1
    15     7     8    2
    16     8     9    1
    17     9    10    2
    18     9    11    1
    19    15    16   ar
    20    16    17   ar
    21    17    12   ar
    22    11     1    2
    23     8     3    1
@<TRIPOS>MOLECULE
*****
 21 23 0 0 0
SMALL
GASTEIGER

@<TRIPOS>ATOM
      1 C          62.0893   85.6059   10.6035 C.2     1  UNL1        0.3688
      2 N          61.8902   85.5244   12.0880 N.2     1  UNL1       -0.0400
      3 C          62.6164   84.4823   12.8861 C.2     1  UNL1        0.1818
      4 C          62.4173   84.4008   14.3705 C.3     1  UNL1        0.1000
      5 C          63.1435   83.3588   15.1685 C.2     1  UNL1       -0.0174
      6 C          64.0687   82.3982   14.4820 C.2     1  UNL1       -0.0038
      7 C          64.2678   82.4797   12.9975 C.2     1  UNL1        0.0101
      8 C          63.5417   83.5217   12.1996 C.2     1  UNL1        0.1209
      9 C          63.7407   83.6033   10.7150 C.2     1  UNL1        0.3788
     10 O          64.6660   82.6427   10.0285 O.2     1  UNL1       -0.2376
     11 N          63.0146   84.6453    9.9171 N.am    1  UNL1        0.0364
     12 C          59.9108   88.7319    8.2094 C.ar    1  UNL1        0.1401
     13 C          60.8397   89.1445    9.3125 C.ar    1  UNL1        0.0372
     14 C          61.5659   88.1025   10.1106 C.ar    1  UNL1        0.0106
     15 C          61.3632   86.6479    9.8055 C.ar    1  UNL1        0.0866
     16 C          60.4343   86.2354    8.7023 C.ar    1  UNL1        0.0106
     17 C          59.7081   87.2774    7.9043 C.ar    1  UNL1        0.0372
     18 O          59.1847   89.7740    7.4113 O.3     1  UNL1       -0.4612
     19 C          59.3163   89.8012    5.9174 C.3     1  UNL1        0.2820
     20 C          59.1672   92.4112    4.4458 C.1     1  UNL1       -0.0105
     21 C          59.2417   91.1061    5.1816 C.1     1  UNL1       -0.0307
@<TRIPOS>BOND
     1    20    21    3
     2    21    19    1
     3    19    18    1
     4    18    12    1
     5    12    13   ar
     6    13    14   ar
     7    14    15   ar
     8    15     1    1
     9     1     2    1
    10     2     3    2
    11     3     4    1
    12     4     5    1
    13     5     6    2
    14     6     7    1
    15     7     8    2
    16     8     9    1
    17     9    10    2
    18     9    11    1
    19    15    16   ar
    20    16    17   ar
    21    17    12   ar
    22    11     1    2
    23     8     3    1
@<TRIPOS>MOLECULE
*****
 21 23 0 0 0
SMALL
GASTEIGER

@<TRIPOS>ATOM
      1 C          63.3713   85.2800   12.8246 C.2     1  UNL1        0.3688
      2 N          62.5867   84.4348   13.7837 N.2     1  UNL1       -0.0400
      3 C          62.4539   82.9593   13.5479 C.2     1  UNL1        0.1818
      4 C          61.6694   82.1141   14.5070 C.3     1  UNL1        0.1000
      5 C          61.5366   80.6387   14.2711 C.2     1  UNL1       -0.0174
      6 C          62.1885   80.0086   13.0761 C.2     1  UNL1       -0.0038
      7 C          62.9730   80.8539   12.1170 C.2     1  UNL1        0.0101
      8 C          63.1058   82.3292   12.3528 C.2     1  UNL1        0.1209
      9 C          63.8904   83.1745   11.3937 C.2     1  UNL1        0.3788
     10 O          64.5423   82.5444   10.1987 O.2     1  UNL1       -0.2376
     11 N          64.0232   84.6499   11.6296 N.am    1  UNL1        0.0364
     12 C          63.7696   89.7061   13.5321 C.ar    1  UNL1        0.1401
     13 C          64.3081   88.7341   14.5397 C.ar    1  UNL1        0.0372
     14 C          64.1754   87.2588   14.3039 C.ar    1  UNL1        0.0106
     15 C          63.5041   86.7554   13.0605 C.ar    1  UNL1        0.0866
     16 C          62.9656   87.7274   12.0529 C.ar    1  UNL1        0.0106
     17 C          63.0983   89.2028   12.2888 C.ar    1  UNL1        0.0372
     18 O          63.9023   91.1816   13.7680 O.3     1  UNL1       -0.4612
     19 C          65.1528   91.8980   13.3520 C.3     1  UNL1        0.2820
     20 C          67.6187   91.7211   15.0514 C.1     1  UNL1       -0.0105
     21 C          66.3857   91.8096   14.2017 C.1     1  UNL1       -0.0307
@<TRIPOS>BOND
     1    20    21    3
     2    21    19    1
     3    19    18    1
     4    18    12    1
     5    12    13   ar
     6    13    14   ar
     7    14    15   ar
     8    15     1    1
     9     1     2    1
    10     2     3    2
    11     3     4    1
    12     4     5    1
    13     5     6    2
    14     6     7    1
    15     7     8    2
    16     8     9    1
    17     9    10    2
    18     9    11    1
    19    15    16   ar
    20    16    17   ar
    21    17    12   ar
    22    11     1    2
    23     8     3    1
@<TRIPOS>MOLECULE
*****
 21 23 0 0 0
SMALL
GASTEIGER

@<TRIPOS>ATOM
      1 C          63.1088   86.3454   12.7946 C.2     1  UNL1        0.3688
      2 N          63.8308   87.3235   13.6731 N.2     1  UNL1       -0.0400
      3 C          63.8544   88.7796   13.3133 C.2     1  UNL1        0.1818
      4 C          64.5765   89.7576   14.1919 C.3     1  UNL1        0.1000
      5 C          64.6000   91.2136   13.8320 C.2     1  UNL1       -0.0174
      6 C          63.9015   91.6915   12.5936 C.2     1  UNL1       -0.0038
      7 C          63.1794   90.7135   11.7151 C.2     1  UNL1        0.0101
      8 C          63.1559   89.2575   12.0749 C.2     1  UNL1        0.1209
      9 C          62.4338   88.2793   11.1963 C.2     1  UNL1        0.3788
     10 O          61.7352   88.7572    9.9579 O.2     1  UNL1       -0.2376
     11 N          62.4102   86.8233   11.5562 N.am    1  UNL1        0.0364
     12 C          63.0381   81.9774   13.8739 C.ar    1  UNL1        0.1401
     13 C          63.0448   83.0171   14.9551 C.ar    1  UNL1        0.0372
     14 C          63.0684   84.4731   14.5953 C.ar    1  UNL1        0.0106
     15 C          63.0852   84.8894   13.1544 C.ar    1  UNL1        0.0866
     16 C          63.0784   83.8497   12.0732 C.ar    1  UNL1        0.0106
     17 C          63.0548   82.3937   12.4329 C.ar    1  UNL1        0.0372
     18 O          63.0145   80.5213   14.2337 O.3     1  UNL1       -0.4612
     19 C          61.9035   79.6440   13.7376 C.3     1  UNL1        0.2820
     20 C          59.0487   80.3824   14.2899 C.1     1  UNL1       -0.0105
     21 C          60.4762   80.0132   14.0137 C.1     1  UNL1       -0.0307
@<TRIPOS>BOND
     1    20    21    3
     2    21    19    1
     3    19    18    1
     4    18    12    1
     5    12    13   ar
     6    13    14   ar
     7    14    15   ar
     8    15     1    1
     9     1     2    1
    10     2     3    2
    11     3     4    1
    12     4     5    1
    13     5     6    2
    14     6     7    1
    15     7     8    2
    16     8     9    1
    17     9    10    2
    18     9    11    1
    19    15    16   ar
    20    16    17   ar
    21    17    12   ar
    22    11     1    2
    23     8     3    1
@<TRIPOS>MOLECULE
*****
 21 23 0 0 0
SMALL
GASTEIGER

@<TRIPOS>ATOM
      1 C          63.4860   87.3073   12.9716 C.2     1  UNL1        0.3688
      2 N          63.9065   86.1556   13.8358 N.2     1  UNL1       -0.0400
      3 C          63.4785   84.7609   13.4872 C.2     1  UNL1        0.1818
      4 C          63.8990   83.6092   14.3513 C.3     1  UNL1        0.1000
      5 C          63.4709   82.2145   14.0027 C.2     1  UNL1       -0.0174
      6 C          62.6224   81.9715   12.7899 C.2     1  UNL1       -0.0038
      7 C          62.2018   83.1231   11.9258 C.2     1  UNL1        0.0101
      8 C          62.6299   84.5178   12.2744 C.2     1  UNL1        0.1209
      9 C          62.2093   85.6696   11.4102 C.2     1  UNL1        0.3788
     10 O          61.3607   85.4265   10.1974 O.2     1  UNL1       -0.2376
     11 N          62.6374   87.0642   11.7588 N.am    1  UNL1        0.0364
     12 C          64.7700   91.4915   14.0173 C.ar    1  UNL1        0.1401
     13 C          65.1006   90.3536   14.9370 C.ar    1  UNL1        0.0372
     14 C          64.6726   88.9589   14.5885 C.ar    1  UNL1        0.0106
     15 C          63.9140   88.7021   13.3202 C.ar    1  UNL1        0.0866
     16 C          63.5835   89.8400   12.4005 C.ar    1  UNL1        0.0106
     17 C          64.0115   91.2347   12.7490 C.ar    1  UNL1        0.0372
     18 O          65.1981   92.8863   14.3659 O.3     1  UNL1       -0.4612
     19 C          66.6115   93.3216   14.1158 C.3     1  UNL1        0.2820
     20 C          68.7746   92.5824   16.0587 C.1     1  UNL1       -0.0105
     21 C          67.6930   92.9520   15.0873 C.1     1  UNL1       -0.0307
@<TRIPOS>BOND
     1    20    21    3
     2    21    19    1
     3    19    18    1
     4    18    12    1
     5    12    13   ar
     6    13    14   ar
     7    14    15   ar
     8    15     1    1
     9     1     2    1
    10     2     3    2
    11     3     4    1
    12     4     5    1
    13     5     6    2
    14     6     7    1
    15     7     8    2
    16     8     9    1
    17     9    10    2
    18     9    11    1
    19    15    16   ar
    20    16    17   ar
    21    17    12   ar
    22    11     1    2
    23     8     3    1
@<TRIPOS>MOLECULE
*****
 21 23 0 0 0
SMALL
GASTEIGER

@<TRIPOS>ATOM
      1 C          63.1518   86.3183   12.8644 C.2     1  UNL1        0.3688
      2 N          62.4964   86.8130   11.6091 N.2     1  UNL1       -0.0400
      3 C          62.5266   88.2746   11.2731 C.2     1  UNL1        0.1818
      4 C          61.8712   88.7693   10.0179 C.3     1  UNL1        0.1000
      5 C          61.9014   90.2308    9.6820 C.2     1  UNL1       -0.0174
      6 C          62.5870   91.1977   10.6013 C.2     1  UNL1       -0.0038
      7 C          63.2424   90.7030   11.8566 C.2     1  UNL1        0.0101
      8 C          63.2122   89.2414   12.1925 C.2     1  UNL1        0.1209
      9 C          63.8676   88.7467   13.4478 C.2     1  UNL1        0.3788
     10 O          64.5531   89.7135   14.3671 O.2     1  UNL1       -0.2376
     11 N          63.8374   87.2851   13.7837 N.am    1  UNL1        0.0364
     12 C          63.0613   81.9336   13.8724 C.ar    1  UNL1        0.1401
     13 C          62.9669   82.3765   12.4424 C.ar    1  UNL1        0.0372
     14 C          62.9971   83.8380   12.1064 C.ar    1  UNL1        0.0106
     15 C          63.1216   84.8566   13.2004 C.ar    1  UNL1        0.0866
     16 C          63.2160   84.4137   14.6304 C.ar    1  UNL1        0.0106
     17 C          63.1858   82.9522   14.9664 C.ar    1  UNL1        0.0372
     18 O          63.0311   80.4719   14.2084 O.3     1  UNL1       -0.4612
     19 C          61.9166   79.6078   13.6974 C.3     1  UNL1        0.2820
     20 C          59.0669   80.3155   14.3127 C.1     1  UNL1       -0.0105
     21 C          60.4918   79.9617   14.0051 C.1     1  UNL1       -0.0307
@<TRIPOS>BOND
     1    20    21    3
     2    21    19    1
     3    19    18    1
     4    18    12    1
     5    12    13   ar
     6    13    14   ar
     7    14    15   ar
     8    15     1    1
     9     1     2    1
    10     2     3    2
    11     3     4    1
    12     4     5    1
    13     5     6    2
    14     6     7    1
    15     7     8    2
    16     8     9    1
    17     9    10    2
    18     9    11    1
    19    15    16   ar
    20    16    17   ar
    21    17    12   ar
    22    11     1    2
    23     8     3    1
