@<TRIPOS>MOLECULE
*****
 21 23 0 0 0
SMALL
GASTEIGER

@<TRIPOS>ATOM
      1 C          65.0464   92.0024   11.8334 C.ar    1  UNL1        0.0253
      2 C          63.8427   91.4325   11.1433 C.ar    1  UNL1        0.0993
      3 N          62.9377   90.4854   11.8739 N.ar    1  UNL1       -0.2423
      4 C          63.2364   90.1082   13.2946 C.ar    1  UNL1        0.0989
      5 C          64.4401   90.6780   13.9847 C.ar    1  UNL1        0.0208
      6 C          65.3451   91.6251   13.2541 C.ar    1  UNL1        0.0065
      7 C          66.5489   92.1951   13.9442 C.ar    1  UNL1        0.0385
      8 C          66.3758   93.1643   15.0758 C.ar    1  UNL1        0.1022
      9 N          67.5795   93.7342   15.7659 N.ar    1  UNL1       -0.2224
     10 C          68.9564   93.3349   15.3244 C.ar    1  UNL1        0.1989
     11 N          69.1295   92.3656   14.1928 N.ar    1  UNL1       -0.2224
     12 C          67.9257   91.7957   13.5027 C.ar    1  UNL1        0.1022
     13 C          66.9521   94.9878   10.2455 C.ar    1  UNL1        0.0230
     14 C          67.7366   93.8262    9.7114 C.ar    1  UNL1        0.0040
     15 C          67.1182   92.5665   10.2413 C.ar    1  UNL1        0.0067
     16 C          65.9515   92.9495   11.1028 C.ar    1  UNL1        0.0307
     17 S          65.8488   94.4460   11.1053 S.2     1  UNL1       -0.0899
     18 N          67.7713   96.8559    8.6364 N.3     1  UNL1       -0.3170
     19 C          67.2232   96.4368    9.9683 C.3     1  UNL1        0.0987
     20 H          67.8933   97.8685    8.6223 H       1  UNL1        0.1192
     21 H          67.1214   96.5815    7.8997 H       1  UNL1        0.1192
@<TRIPOS>BOND
     1    18    19    1
     2    19    13    1
     3    13    14   ar
     4    14    15   ar
     5    15    16   ar
     6    16     1    1
     7     1     2   ar
     8     2     3   ar
     9     3     4   ar
    10     4     5   ar
    11     5     6   ar
    12     6     7    1
    13     7     8   ar
    14     8     9   ar
    15     9    10   ar
    16    10    11   ar
    17    11    12   ar
    18    16    17   ar
    19    17    13   ar
    20     6     1   ar
    21    12     7   ar
    22    18    20    1
    23    18    21    1
@<TRIPOS>MOLECULE
*****
 21 23 0 0 0
SMALL
GASTEIGER

@<TRIPOS>ATOM
      1 C          64.4993   90.4196   13.8345 C.ar    1  UNL1        0.0253
      2 C          65.6628   91.3048   14.1703 C.ar    1  UNL1        0.0993
      3 N          66.1264   92.3390   13.1877 N.ar    1  UNL1       -0.2423
      4 C          65.4265   92.4880   11.8694 C.ar    1  UNL1        0.0989
      5 C          64.2630   91.6028   11.5336 C.ar    1  UNL1        0.0208
      6 C          63.7994   90.5687   12.5162 C.ar    1  UNL1        0.0065
      7 C          62.6359   89.6834   12.1805 C.ar    1  UNL1        0.0385
      8 C          62.8719   88.3344   11.5687 C.ar    1  UNL1        0.1022
      9 N          61.7085   87.4491   11.2330 N.ar    1  UNL1       -0.2224
     10 C          60.3089   87.9130   11.5091 C.ar    1  UNL1        0.1989
     11 N          60.0729   89.2620   12.1209 N.ar    1  UNL1       -0.2224
     12 C          61.2364   90.1473   12.4566 C.ar    1  UNL1        0.1022
     13 C          63.6482   87.2576   15.9185 C.ar    1  UNL1        0.0230
     14 C          62.9962   88.3302   16.7398 C.ar    1  UNL1        0.0040
     15 C          63.2357   89.6452   16.0591 C.ar    1  UNL1        0.0067
     16 C          64.0357   89.3854   14.8171 C.ar    1  UNL1        0.0307
     17 S          64.2906   87.9098   14.7302 S.2     1  UNL1       -0.0899
     18 N          62.4984   84.9299   15.8201 N.3     1  UNL1       -0.3170
     19 C          63.6563   85.7905   16.2307 C.3     1  UNL1        0.0987
     20 H          62.6706   83.9672   16.1101 H       1  UNL1        0.1192
     21 H          62.3910   84.9655   14.8064 H       1  UNL1        0.1192
@<TRIPOS>BOND
     1    18    19    1
     2    19    13    1
     3    13    14   ar
     4    14    15   ar
     5    15    16   ar
     6    16     1    1
     7     1     2   ar
     8     2     3   ar
     9     3     4   ar
    10     4     5   ar
    11     5     6   ar
    12     6     7    1
    13     7     8   ar
    14     8     9   ar
    15     9    10   ar
    16    10    11   ar
    17    11    12   ar
    18    16    17   ar
    19    17    13   ar
    20     6     1   ar
    21    12     7   ar
    22    18    20    1
    23    18    21    1
@<TRIPOS>MOLECULE
*****
 21 23 0 0 0
SMALL
GASTEIGER

@<TRIPOS>ATOM
      1 C          63.8839   91.0453   11.8184 C.ar    1  UNL1        0.0253
      2 C          64.3462   91.9054   10.6798 C.ar    1  UNL1        0.0993
      3 N          65.5300   92.8095   10.8554 N.ar    1  UNL1       -0.2423
      4 C          66.2516   92.8536   12.1697 C.ar    1  UNL1        0.0989
      5 C          65.7894   91.9935   13.3084 C.ar    1  UNL1        0.0208
      6 C          64.6055   91.0894   13.1327 C.ar    1  UNL1        0.0065
      7 C          64.1432   90.2292   14.2714 C.ar    1  UNL1        0.0385
      8 C          64.2721   88.7373   14.1847 C.ar    1  UNL1        0.1022
      9 N          63.8098   87.8772   15.3233 N.ar    1  UNL1       -0.2224
     10 C          63.2185   88.5090   16.5486 C.ar    1  UNL1        0.1989
     11 N          63.0896   90.0009   16.6353 N.ar    1  UNL1       -0.2224
     12 C          63.5519   90.8610   15.4966 C.ar    1  UNL1        0.1022
     13 C          60.4414   89.2554   11.7130 C.ar    1  UNL1        0.0230
     14 C          61.3149   88.2439   11.0320 C.ar    1  UNL1        0.0040
     15 C          62.7108   88.7913   10.9886 C.ar    1  UNL1        0.0067
     16 C          62.6999   90.1411   11.6428 C.ar    1  UNL1        0.0307
     17 S          61.2974   90.4279   12.0905 S.2     1  UNL1       -0.0899
     18 N          58.4867   88.5489   13.2720 N.3     1  UNL1       -0.3170
     19 C          58.9701   89.1185   11.9712 C.3     1  UNL1        0.0987
     20 H          57.4669   88.5293   13.2765 H       1  UNL1        0.1192
     21 H          58.8190   89.1297   14.0419 H       1  UNL1        0.1192
@<TRIPOS>BOND
     1    18    19    1
     2    19    13    1
     3    13    14   ar
     4    14    15   ar
     5    15    16   ar
     6    16     1    1
     7     1     2   ar
     8     2     3   ar
     9     3     4   ar
    10     4     5   ar
    11     5     6   ar
    12     6     7    1
    13     7     8   ar
    14     8     9   ar
    15     9    10   ar
    16    10    11   ar
    17    11    12   ar
    18    16    17   ar
    19    17    13   ar
    20     6     1   ar
    21    12     7   ar
    22    18    20    1
    23    18    21    1
@<TRIPOS>MOLECULE
*****
 21 23 0 0 0
SMALL
GASTEIGER

@<TRIPOS>ATOM
      1 C          63.8022   91.0684   11.7922 C.ar    1  UNL1        0.0253
      2 C          64.2462   91.9373   10.6531 C.ar    1  UNL1        0.0993
      3 N          65.4418   92.8292   10.8119 N.ar    1  UNL1       -0.2423
      4 C          66.1933   92.8521   12.1098 C.ar    1  UNL1        0.0989
      5 C          65.7493   91.9831   13.2490 C.ar    1  UNL1        0.0208
      6 C          64.5537   91.0913   13.0902 C.ar    1  UNL1        0.0065
      7 C          64.1096   90.2223   14.2294 C.ar    1  UNL1        0.0385
      8 C          63.4988   90.8417   15.4513 C.ar    1  UNL1        0.1022
      9 N          63.0547   89.9728   16.5905 N.ar    1  UNL1       -0.2224
     10 C          63.2215   88.4844   16.5078 C.ar    1  UNL1        0.1989
     11 N          63.8323   87.8649   15.2858 N.ar    1  UNL1       -0.2224
     12 C          64.2764   88.7339   14.1466 C.ar    1  UNL1        0.1022
     13 C          61.2024   88.2741   11.0862 C.ar    1  UNL1        0.0230
     14 C          60.3312   89.3342   11.6923 C.ar    1  UNL1        0.0040
     15 C          61.1990   90.5099   12.0305 C.ar    1  UNL1        0.0067
     16 C          62.6066   90.1765   11.6335 C.ar    1  UNL1        0.0307
     17 S          62.6087   88.7947   11.0498 S.2     1  UNL1       -0.0899
     18 N          61.5202   85.6981   10.9705 N.3     1  UNL1       -0.3170
     19 C          60.7472   86.9295   10.6015 C.3     1  UNL1        0.0987
     20 H          61.0723   84.8794   10.5587 H       1  UNL1        0.1192
     21 H          61.5398   85.6004   11.9856 H       1  UNL1        0.1192
@<TRIPOS>BOND
     1    18    19    1
     2    19    13    1
     3    13    14   ar
     4    14    15   ar
     5    15    16   ar
     6    16     1    1
     7     1     2   ar
     8     2     3   ar
     9     3     4   ar
    10     4     5   ar
    11     5     6   ar
    12     6     7    1
    13     7     8   ar
    14     8     9   ar
    15     9    10   ar
    16    10    11   ar
    17    11    12   ar
    18    16    17   ar
    19    17    13   ar
    20     6     1   ar
    21    12     7   ar
    22    18    20    1
    23    18    21    1
@<TRIPOS>MOLECULE
*****
 21 23 0 0 0
SMALL
GASTEIGER

@<TRIPOS>ATOM
      1 C          63.8008   91.0673   11.7957 C.ar    1  UNL1        0.0253
      2 C          64.2454   91.9370   10.6573 C.ar    1  UNL1        0.0993
      3 N          65.4414   92.8281   10.8171 N.ar    1  UNL1       -0.2423
      4 C          66.1928   92.8494   12.1151 C.ar    1  UNL1        0.0989
      5 C          65.7482   91.9797   13.2535 C.ar    1  UNL1        0.0208
      6 C          64.5522   91.0886   13.0937 C.ar    1  UNL1        0.0065
      7 C          64.1075   90.2189   14.2321 C.ar    1  UNL1        0.0385
      8 C          64.2783   88.7309   14.1502 C.ar    1  UNL1        0.1022
      9 N          63.8337   87.8611   15.2885 N.ar    1  UNL1       -0.2224
     10 C          63.2181   88.4793   16.5088 C.ar    1  UNL1        0.1989
     11 N          63.0473   89.9673   16.5907 N.ar    1  UNL1       -0.2224
     12 C          63.4920   90.8371   15.4523 C.ar    1  UNL1        0.1022
     13 C          61.2016   88.2702   11.0984 C.ar    1  UNL1        0.0230
     14 C          60.3268   89.3398   11.6821 C.ar    1  UNL1        0.0040
     15 C          61.1940   90.5178   12.0144 C.ar    1  UNL1        0.0067
     16 C          62.6047   90.1762   11.6360 C.ar    1  UNL1        0.0307
     17 S          62.6094   88.7871   11.0699 S.2     1  UNL1       -0.0899
     18 N          61.5392   85.6968   10.9818 N.3     1  UNL1       -0.3170
     19 C          60.7482   86.9206   10.6261 C.3     1  UNL1        0.0987
     20 H          61.0900   84.8733   10.5811 H       1  UNL1        0.1192
     21 H          61.5805   85.6017   11.9965 H       1  UNL1        0.1192
@<TRIPOS>BOND
     1    18    19    1
     2    19    13    1
     3    13    14   ar
     4    14    15   ar
     5    15    16   ar
     6    16     1    1
     7     1     2   ar
     8     2     3   ar
     9     3     4   ar
    10     4     5   ar
    11     5     6   ar
    12     6     7    1
    13     7     8   ar
    14     8     9   ar
    15     9    10   ar
    16    10    11   ar
    17    11    12   ar
    18    16    17   ar
    19    17    13   ar
    20     6     1   ar
    21    12     7   ar
    22    18    20    1
    23    18    21    1
@<TRIPOS>MOLECULE
*****
 21 23 0 0 0
SMALL
GASTEIGER

@<TRIPOS>ATOM
      1 C          60.7837   86.7509    8.9670 C.ar    1  UNL1        0.0253
      2 C          60.0802   86.1140    7.8054 C.ar    1  UNL1        0.0993
      3 N          59.2074   86.9433    6.9108 N.ar    1  UNL1       -0.2423
      4 C          59.0380   88.4096    7.1779 C.ar    1  UNL1        0.0989
      5 C          59.7415   89.0465    8.3395 C.ar    1  UNL1        0.0208
      6 C          60.6143   88.2172    9.2340 C.ar    1  UNL1        0.0065
      7 C          61.3178   88.8541   10.3957 C.ar    1  UNL1        0.0385
      8 C          62.7481   89.2857   10.2614 C.ar    1  UNL1        0.1022
      9 N          63.4516   89.9226   11.4230 N.ar    1  UNL1       -0.2224
     10 C          62.7249   90.1279   12.7191 C.ar    1  UNL1        0.1989
     11 N          61.2946   89.6962   12.8535 N.ar    1  UNL1       -0.2224
     12 C          60.5911   89.0593   11.6918 C.ar    1  UNL1        0.1022
     13 C          63.3627   84.3799   10.6381 C.ar    1  UNL1        0.0230
     14 C          62.6366   84.9107   11.8386 C.ar    1  UNL1        0.0040
     15 C          61.5822   85.8635   11.3587 C.ar    1  UNL1        0.0067
     16 C          61.6565   85.9215    9.8616 C.ar    1  UNL1        0.0307
     17 S          62.7570   85.0046    9.4163 S.2     1  UNL1       -0.0899
     18 N          64.9311   82.7783   11.9515 N.3     1  UNL1       -0.3170
     19 C          64.4956   83.3969   10.6563 C.3     1  UNL1        0.0987
     20 H          65.7073   82.1394   11.7791 H       1  UNL1        0.1192
     21 H          64.1518   82.2636   12.3614 H       1  UNL1        0.1192
@<TRIPOS>BOND
     1    18    19    1
     2    19    13    1
     3    13    14   ar
     4    14    15   ar
     5    15    16   ar
     6    16     1    1
     7     1     2   ar
     8     2     3   ar
     9     3     4   ar
    10     4     5   ar
    11     5     6   ar
    12     6     7    1
    13     7     8   ar
    14     8     9   ar
    15     9    10   ar
    16    10    11   ar
    17    11    12   ar
    18    16    17   ar
    19    17    13   ar
    20     6     1   ar
    21    12     7   ar
    22    18    20    1
    23    18    21    1
@<TRIPOS>MOLECULE
*****
 21 23 0 0 0
SMALL
GASTEIGER

@<TRIPOS>ATOM
      1 C          63.0809   86.4666   12.2722 C.ar    1  UNL1        0.0253
      2 C          63.2474   87.8021   12.9344 C.ar    1  UNL1        0.0993
      3 N          64.0086   87.9109   14.2223 N.ar    1  UNL1       -0.2423
      4 C          64.6032   86.6841   14.8480 C.ar    1  UNL1        0.0989
      5 C          64.4366   85.3486   14.1858 C.ar    1  UNL1        0.0208
      6 C          63.6755   85.2398   12.8979 C.ar    1  UNL1        0.0065
      7 C          63.5088   83.9042   12.2356 C.ar    1  UNL1        0.0385
      8 C          64.4456   83.4881   11.1405 C.ar    1  UNL1        0.1022
      9 N          64.2791   82.1526   10.4782 N.ar    1  UNL1       -0.2224
     10 C          63.1756   81.2332   10.9110 C.ar    1  UNL1        0.1989
     11 N          62.2389   81.6493   12.0061 N.ar    1  UNL1       -0.2224
     12 C          62.4055   82.9849   12.6684 C.ar    1  UNL1        0.1022
     13 C          60.5957   86.6052    9.2939 C.ar    1  UNL1        0.0230
     14 C          61.7009   85.7754    8.7107 C.ar    1  UNL1        0.0040
     15 C          62.7664   85.6225    9.7555 C.ar    1  UNL1        0.0067
     16 C          62.3196   86.3578   10.9843 C.ar    1  UNL1        0.0307
     17 S          60.9781   86.9651   10.6990 S.2     1  UNL1       -0.0899
     18 N          58.8855   86.2653    7.3678 N.3     1  UNL1       -0.3170
     19 C          59.3302   87.0049    8.5947 C.3     1  UNL1        0.0987
     20 H          58.0125   86.6673    7.0262 H       1  UNL1        0.1192
     21 H          58.7402   85.2822    7.5975 H       1  UNL1        0.1192
@<TRIPOS>BOND
     1    18    19    1
     2    19    13    1
     3    13    14   ar
     4    14    15   ar
     5    15    16   ar
     6    16     1    1
     7     1     2   ar
     8     2     3   ar
     9     3     4   ar
    10     4     5   ar
    11     5     6   ar
    12     6     7    1
    13     7     8   ar
    14     8     9   ar
    15     9    10   ar
    16    10    11   ar
    17    11    12   ar
    18    16    17   ar
    19    17    13   ar
    20     6     1   ar
    21    12     7   ar
    22    18    20    1
    23    18    21    1
@<TRIPOS>MOLECULE
*****
 21 23 0 0 0
SMALL
GASTEIGER

@<TRIPOS>ATOM
      1 C          60.8072   88.4353    9.2856 C.ar    1  UNL1        0.0253
      2 C          59.9345   89.2704    8.3962 C.ar    1  UNL1        0.0993
      3 N          59.0399   88.6102    7.3894 N.ar    1  UNL1       -0.2423
      4 C          59.0181   87.1150    7.2719 C.ar    1  UNL1        0.0989
      5 C          59.8908   86.2799    8.1612 C.ar    1  UNL1        0.0208
      6 C          60.7854   86.9401    9.1681 C.ar    1  UNL1        0.0065
      7 C          61.6581   86.1050   10.0575 C.ar    1  UNL1        0.0385
      8 C          61.4287   86.0969   11.5398 C.ar    1  UNL1        0.1022
      9 N          62.3014   85.2619   12.4293 N.ar    1  UNL1       -0.2224
     10 C          63.4036   84.4350   11.8364 C.ar    1  UNL1        0.1989
     11 N          63.6331   84.4432   10.3540 N.ar    1  UNL1       -0.2224
     12 C          62.7603   85.2782    9.4646 C.ar    1  UNL1        0.1022
     13 C          62.6513   89.8436   12.3972 C.ar    1  UNL1        0.0230
     14 C          63.5059   90.3792   11.2867 C.ar    1  UNL1        0.0040
     15 C          62.9191   89.9168    9.9860 C.ar    1  UNL1        0.0067
     16 C          61.7019   89.0955   10.2925 C.ar    1  UNL1        0.0307
     17 S          61.5364   89.0503   11.7827 S.2     1  UNL1       -0.0899
     18 N          63.4831   91.3452   14.3474 N.3     1  UNL1       -0.3170
     19 C          62.8728   90.0629   13.8644 C.3     1  UNL1        0.0987
     20 H          63.5595   91.3235   15.3643 H       1  UNL1        0.1192
     21 H          62.8934   92.1290   14.0674 H       1  UNL1        0.1192
@<TRIPOS>BOND
     1    18    19    1
     2    19    13    1
     3    13    14   ar
     4    14    15   ar
     5    15    16   ar
     6    16     1    1
     7     1     2   ar
     8     2     3   ar
     9     3     4   ar
    10     4     5   ar
    11     5     6   ar
    12     6     7    1
    13     7     8   ar
    14     8     9   ar
    15     9    10   ar
    16    10    11   ar
    17    11    12   ar
    18    16    17   ar
    19    17    13   ar
    20     6     1   ar
    21    12     7   ar
    22    18    20    1
    23    18    21    1
@<TRIPOS>MOLECULE
*****
 21 23 0 0 0
SMALL
GASTEIGER

@<TRIPOS>ATOM
      1 C          62.8113   86.4103   11.5287 C.ar    1  UNL1        0.0253
      2 C          63.1986   87.2074   12.7388 C.ar    1  UNL1        0.0993
      3 N          63.1274   88.7053   12.7045 N.ar    1  UNL1       -0.2423
      4 C          62.6687   89.4060   11.4601 C.ar    1  UNL1        0.0989
      5 C          62.2814   88.6089   10.2500 C.ar    1  UNL1        0.0208
      6 C          62.3526   87.1110   10.2843 C.ar    1  UNL1        0.0065
      7 C          61.9653   86.3138    9.0741 C.ar    1  UNL1        0.0385
      8 C          60.5279   86.2434    8.6509 C.ar    1  UNL1        0.1022
      9 N          60.1405   85.4462    7.4408 N.ar    1  UNL1       -0.2224
     10 C          61.1905   84.7194    6.6538 C.ar    1  UNL1        0.1989
     11 N          62.6278   84.7897    7.0770 N.ar    1  UNL1       -0.2224
     12 C          63.0152   85.5870    8.2872 C.ar    1  UNL1        0.1022
     13 C          62.6465   82.6060   12.2813 C.ar    1  UNL1        0.0230
     14 C          63.3379   82.6085   10.9500 C.ar    1  UNL1        0.0040
     15 C          63.4838   84.0338   10.5062 C.ar    1  UNL1        0.0067
     16 C          62.8825   84.9123   11.5630 C.ar    1  UNL1        0.0307
     17 S          62.3651   84.0299   12.6600 S.2     1  UNL1       -0.0899
     18 N          62.1401   81.5041   14.5789 N.3     1  UNL1       -0.3170
     19 C          62.2978   81.3927   13.0914 C.3     1  UNL1        0.0987
     20 H          61.9046   80.5899   14.9652 H       1  UNL1        0.1192
     21 H          61.3944   82.1661   14.7932 H       1  UNL1        0.1192
@<TRIPOS>BOND
     1    18    19    1
     2    19    13    1
     3    13    14   ar
     4    14    15   ar
     5    15    16   ar
     6    16     1    1
     7     1     2   ar
     8     2     3   ar
     9     3     4   ar
    10     4     5   ar
    11     5     6   ar
    12     6     7    1
    13     7     8   ar
    14     8     9   ar
    15     9    10   ar
    16    10    11   ar
    17    11    12   ar
    18    16    17   ar
    19    17    13   ar
    20     6     1   ar
    21    12     7   ar
    22    18    20    1
    23    18    21    1
