@<TRIPOS>MOLECULE
*****
 29 33 0 0 0
SMALL
GASTEIGER

@<TRIPOS>ATOM
      1 C          61.9913   89.8246   10.4337 C.3     1  UNL1        0.0538
      2 C          62.8226   90.3197   11.5799 C.ar    1  UNL1        0.0784
      3 C          63.8725   91.3657   11.3481 C.ar    1  UNL1        0.0962
      4 N          64.7038   91.8608   12.4943 N.ar    1  UNL1       -0.2856
      5 C          65.8043   92.8773   12.5706 C.ar    1  UNL1        0.0841
      6 C          66.2659   92.9546   13.9956 C.ar    1  UNL1        0.1179
      7 N          65.4508   91.9860   14.8001 N.ar    1  UNL1       -0.2223
      8 C          64.4853   91.3100   13.8722 C.ar    1  UNL1        0.1800
      9 C          63.4355   90.2640   14.1040 C.ar    1  UNL1        0.1670
     10 N          62.6041   89.7688   12.9578 N.ar    1  UNL1       -0.2304
     11 C          66.3477   93.6761   11.4231 C.2     1  UNL1        0.0425
     12 C          66.2819   95.1676   11.2778 C.2     1  UNL1        0.1209
     13 N          66.9459   95.5370    9.9844 N.2     1  UNL1       -0.1510
     14 N          67.4220   94.2738    9.3305 N.2     1  UNL1       -0.1694
     15 C          67.0523   93.1237   10.2197 C.3     1  UNL1        0.1786
     16 N          63.2170   89.7131   15.4820 N.pl3   1  UNL1       -0.2894
     17 H          62.9285   90.3092   16.2104 H       1  UNL1        0.1542
     18 C          63.4381   88.2539   15.7501 C.ar    1  UNL1        0.0990
     19 C          64.1790   87.2970   14.8639 C.ar    1  UNL1        0.0385
     20 C          64.1560   85.9471   15.5175 C.ar    1  UNL1        0.0746
     21 N          63.4008   86.0697   16.8077 N.ar    1  UNL1       -0.2119
     22 S          62.9571   87.4954   16.9515 S.2     1  UNL1        0.0276
     23 C          64.7787   84.6945   14.9760 C.3     1  UNL1        0.0922
     24 C          63.9365   83.6968   14.2375 C.ar    1  UNL1        0.0650
     25 C          64.0061   83.6181   12.7412 C.ar    1  UNL1        0.0151
     26 C          63.1639   82.6204   12.0028 C.ar    1  UNL1        0.0028
     27 C          62.2521   81.7016   12.7606 C.ar    1  UNL1        0.0207
     28 C          62.1825   81.7803   14.2570 C.ar    1  UNL1        0.0985
     29 N          63.0248   82.7780   14.9954 N.ar    1  UNL1       -0.2478
@<TRIPOS>BOND
     1     1     2    1
     2     2     3   ar
     3     3     4   ar
     4     4     5   ar
     5     5    11    1
     6    11    12    2
     7    12    13    1
     8    13    14    2
     9    14    15    1
    10     5     6   ar
    11     6     7   ar
    12     7     8   ar
    13     8     9   ar
    14     9    16    1
    15    16    18    1
    16    18    19   ar
    17    19    20   ar
    18    20    23    1
    19    23    24    1
    20    24    25   ar
    21    25    26   ar
    22    26    27   ar
    23    27    28   ar
    24    28    29   ar
    25    20    21   ar
    26    21    22   ar
    27     9    10   ar
    28    10     2   ar
    29     8     4   ar
    30    22    18   ar
    31    15    11    1
    32    29    24   ar
    33    16    17    1
@<TRIPOS>MOLECULE
*****
 29 33 0 0 0
SMALL
GASTEIGER

@<TRIPOS>ATOM
      1 C          67.5627   93.0097   16.1879 C.3     1  UNL1        0.0538
      2 C          66.5570   92.5150   15.1911 C.ar    1  UNL1        0.0784
      3 C          66.6986   92.8740   13.7415 C.ar    1  UNL1        0.0962
      4 N          65.6928   92.3793   12.7447 N.ar    1  UNL1       -0.2856
      5 C          65.5728   92.5686   11.2615 C.ar    1  UNL1        0.0841
      6 C          64.3514   91.8318   10.7975 C.ar    1  UNL1        0.1179
      7 N          63.7165   91.1872   11.9939 N.ar    1  UNL1       -0.2223
      8 C          64.5456   91.5255   13.1973 C.ar    1  UNL1        0.1800
      9 C          64.4040   91.1665   14.6468 C.ar    1  UNL1        0.1670
     10 N          65.4098   91.6613   15.6437 N.ar    1  UNL1       -0.2304
     11 C          66.5098   93.3563   10.3946 C.2     1  UNL1        0.0425
     12 C          67.6909   92.8096    9.6488 C.2     1  UNL1        0.1209
     13 N          68.3412   93.9446    8.9145 N.2     1  UNL1       -0.1510
     14 N          67.5620   95.1926    9.2065 N.2     1  UNL1       -0.1694
     15 C          66.4301   94.8290   10.1212 C.3     1  UNL1        0.1786
     16 N          63.2567   90.3128   15.0994 N.pl3   1  UNL1       -0.2894
     17 H          62.3551   90.7005   15.1767 H       1  UNL1        0.1542
     18 C          63.4832   88.8682   15.4343 C.ar    1  UNL1        0.0990
     19 C          64.2499   87.8807   14.6054 C.ar    1  UNL1        0.0385
     20 C          64.2233   86.5598   15.3156 C.ar    1  UNL1        0.0746
     21 N          63.4403   86.7310   16.5836 N.ar    1  UNL1       -0.2119
     22 S          62.9829   88.1577   16.6569 S.2     1  UNL1        0.0276
     23 C          64.8668   85.2906   14.8413 C.3     1  UNL1        0.0922
     24 C          64.0448   84.2487   14.1422 C.ar    1  UNL1        0.0650
     25 C          63.5979   84.4708   12.7276 C.ar    1  UNL1        0.0151
     26 C          62.7759   83.4290   12.0285 C.ar    1  UNL1        0.0028
     27 C          62.4008   82.1651   12.7439 C.ar    1  UNL1        0.0207
     28 C          62.8476   81.9429   14.1584 C.ar    1  UNL1        0.0985
     29 N          63.6697   82.9848   14.8576 N.ar    1  UNL1       -0.2478
@<TRIPOS>BOND
     1     1     2    1
     2     2     3   ar
     3     3     4   ar
     4     4     5   ar
     5     5    11    1
     6    11    12    2
     7    12    13    1
     8    13    14    2
     9    14    15    1
    10     5     6   ar
    11     6     7   ar
    12     7     8   ar
    13     8     9   ar
    14     9    16    1
    15    16    18    1
    16    18    19   ar
    17    19    20   ar
    18    20    23    1
    19    23    24    1
    20    24    25   ar
    21    25    26   ar
    22    26    27   ar
    23    27    28   ar
    24    28    29   ar
    25    20    21   ar
    26    21    22   ar
    27     9    10   ar
    28    10     2   ar
    29     8     4   ar
    30    22    18   ar
    31    15    11    1
    32    29    24   ar
    33    16    17    1
@<TRIPOS>MOLECULE
*****
 29 33 0 0 0
SMALL
GASTEIGER

@<TRIPOS>ATOM
      1 C          63.1829   89.2283   16.4697 C.3     1  UNL1        0.0538
      2 C          63.3884   89.8867   15.1377 C.ar    1  UNL1        0.0784
      3 C          64.6538   90.6440   14.8627 C.ar    1  UNL1        0.0962
      4 N          64.8593   91.3025   13.5308 N.ar    1  UNL1       -0.2856
      5 C          65.9944   92.1104   12.9750 C.ar    1  UNL1        0.0841
      6 C          65.6363   92.5109   11.5745 C.ar    1  UNL1        0.1179
      7 N          64.2798   91.9505   11.2648 N.ar    1  UNL1       -0.2223
      8 C          63.7996   91.2037   12.4737 C.ar    1  UNL1        0.1800
      9 C          62.5344   90.4464   12.7487 C.ar    1  UNL1        0.1670
     10 N          62.3287   89.7879   14.0807 N.ar    1  UNL1       -0.2304
     11 C          67.2647   92.4569   13.6936 C.2     1  UNL1        0.0425
     12 C          68.6227   91.8876   13.4080 C.2     1  UNL1        0.1209
     13 N          69.5973   92.5125   14.3619 N.2     1  UNL1       -0.1510
     14 N          68.8414   93.4680   15.2370 N.2     1  UNL1       -0.1694
     15 C          67.3998   93.4336   14.8240 C.3     1  UNL1        0.1786
     16 N          61.4747   90.3476   11.6917 N.pl3   1  UNL1       -0.2894
     17 H          60.9017   91.1236   11.4950 H       1  UNL1        0.1542
     18 C          61.2880   89.0663   10.9343 C.ar    1  UNL1        0.0990
     19 C          62.3587   88.0638   10.6202 C.ar    1  UNL1        0.0385
     20 C          61.7304   86.9405    9.8498 C.ar    1  UNL1        0.0746
     21 N          60.2713   87.2489    9.6878 N.ar    1  UNL1       -0.2119
     22 S          59.9980   88.5627   10.3580 S.2     1  UNL1        0.0276
     23 C          62.4369   85.7228    9.3323 C.3     1  UNL1        0.0922
     24 C          62.9035   84.6640   10.2869 C.ar    1  UNL1        0.0650
     25 C          63.8551   83.6018    9.8221 C.ar    1  UNL1        0.0151
     26 C          64.3217   82.5430   10.7767 C.ar    1  UNL1        0.0028
     27 C          63.8366   82.5464   12.1961 C.ar    1  UNL1        0.0207
     28 C          62.8849   83.6086   12.6609 C.ar    1  UNL1        0.0985
     29 N          62.4184   84.6674   11.7063 N.ar    1  UNL1       -0.2478
@<TRIPOS>BOND
     1     1     2    1
     2     2     3   ar
     3     3     4   ar
     4     4     5   ar
     5     5    11    1
     6    11    12    2
     7    12    13    1
     8    13    14    2
     9    14    15    1
    10     5     6   ar
    11     6     7   ar
    12     7     8   ar
    13     8     9   ar
    14     9    16    1
    15    16    18    1
    16    18    19   ar
    17    19    20   ar
    18    20    23    1
    19    23    24    1
    20    24    25   ar
    21    25    26   ar
    22    26    27   ar
    23    27    28   ar
    24    28    29   ar
    25    20    21   ar
    26    21    22   ar
    27     9    10   ar
    28    10     2   ar
    29     8     4   ar
    30    22    18   ar
    31    15    11    1
    32    29    24   ar
    33    16    17    1
@<TRIPOS>MOLECULE
*****
 29 33 0 0 0
SMALL
GASTEIGER

@<TRIPOS>ATOM
      1 C          61.8258   86.7692   10.1404 C.3     1  UNL1        0.0538
      2 C          62.4488   86.4892   11.4758 C.ar    1  UNL1        0.0784
      3 C          62.4836   85.0872   12.0081 C.ar    1  UNL1        0.0962
      4 N          63.1066   84.8072   13.3435 N.ar    1  UNL1       -0.2856
      5 C          63.2860   83.5369   14.1209 C.ar    1  UNL1        0.0841
      6 C          63.9851   83.8738   15.4045 C.ar    1  UNL1        0.1179
      7 N          64.2377   85.3523   15.4205 N.ar    1  UNL1       -0.2223
      8 C          63.6948   85.9292   14.1468 C.ar    1  UNL1        0.1800
      9 C          63.6600   87.3311   13.6146 C.ar    1  UNL1        0.1670
     10 N          63.0370   87.6112   12.2791 N.ar    1  UNL1       -0.2304
     11 C          62.8440   82.1698   13.6901 C.2     1  UNL1        0.0425
     12 C          63.4314   81.3661   12.5681 C.2     1  UNL1        0.1209
     13 N          62.6873   80.0658   12.4903 N.2     1  UNL1       -0.1510
     14 N          61.6402   80.0661   13.5643 N.2     1  UNL1       -0.1694
     15 C          61.7370   81.3664   14.3058 C.3     1  UNL1        0.1786
     16 N          64.2481   88.4531   14.4179 N.pl3   1  UNL1       -0.2894
     17 H          64.5507   88.2919   15.3407 H       1  UNL1        0.1542
     18 C          64.3753   89.8208   13.8149 C.ar    1  UNL1        0.0990
     19 C          65.5417   90.7501   13.9756 C.ar    1  UNL1        0.0385
     20 C          65.2458   92.0029   13.2055 C.ar    1  UNL1        0.0746
     21 N          63.8965   91.8477   12.5689 N.ar    1  UNL1       -0.2119
     22 S          63.3585   90.4991   12.9455 S.2     1  UNL1        0.0276
     23 C          66.1418   93.2005   13.0920 C.3     1  UNL1        0.0922
     24 C          66.6888   93.6038   11.7548 C.ar    1  UNL1        0.0650
     25 C          67.2764   92.5689   10.8418 C.ar    1  UNL1        0.0151
     26 C          67.8234   92.9723    9.5045 C.ar    1  UNL1        0.0028
     27 C          67.7828   94.4105    9.0805 C.ar    1  UNL1        0.0207
     28 C          67.1952   95.4454    9.9935 C.ar    1  UNL1        0.0985
     29 N          66.6482   95.0421   11.3307 N.ar    1  UNL1       -0.2478
@<TRIPOS>BOND
     1     1     2    1
     2     2     3   ar
     3     3     4   ar
     4     4     5   ar
     5     5    11    1
     6    11    12    2
     7    12    13    1
     8    13    14    2
     9    14    15    1
    10     5     6   ar
    11     6     7   ar
    12     7     8   ar
    13     8     9   ar
    14     9    16    1
    15    16    18    1
    16    18    19   ar
    17    19    20   ar
    18    20    23    1
    19    23    24    1
    20    24    25   ar
    21    25    26   ar
    22    26    27   ar
    23    27    28   ar
    24    28    29   ar
    25    20    21   ar
    26    21    22   ar
    27     9    10   ar
    28    10     2   ar
    29     8     4   ar
    30    22    18   ar
    31    15    11    1
    32    29    24   ar
    33    16    17    1
@<TRIPOS>MOLECULE
*****
 29 33 0 0 0
SMALL
GASTEIGER

@<TRIPOS>ATOM
      1 C          63.7025   85.6313   13.3108 C.3     1  UNL1        0.0538
      2 C          63.2091   86.9273   12.7390 C.ar    1  UNL1        0.0784
      3 C          62.3540   86.9261   11.5065 C.ar    1  UNL1        0.0962
      4 N          61.8606   88.2220   10.9347 N.ar    1  UNL1       -0.2856
      5 C          61.0083   88.5321    9.7399 C.ar    1  UNL1        0.0841
      6 C          60.8433   90.0209    9.6620 C.ar    1  UNL1        0.1179
      7 N          61.5935   90.6310   10.8087 N.ar    1  UNL1       -0.2223
      8 C          62.2222   89.5193   11.5953 C.ar    1  UNL1        0.1800
      9 C          63.0773   89.5205   12.8277 C.ar    1  UNL1        0.1670
     10 N          63.5707   88.2245   13.3996 N.ar    1  UNL1       -0.2304
     11 C          60.4238   87.5293    8.7898 C.2     1  UNL1        0.0425
     12 C          59.1088   87.6509    8.0785 C.2     1  UNL1        0.1209
     13 N          58.9239   86.4256    7.2332 N.2     1  UNL1       -0.1510
     14 N          60.1248   85.5467    7.4221 N.2     1  UNL1       -0.1694
     15 C          61.0517   86.2288    8.3841 C.3     1  UNL1        0.1786
     16 N          63.4389   90.8178   13.4883 N.pl3   1  UNL1       -0.2894
     17 H          62.8430   91.2066   14.1687 H       1  UNL1        0.1542
     18 C          64.7086   91.5226   13.1122 C.ar    1  UNL1        0.0990
     19 C          65.1051   91.9467   11.7291 C.ar    1  UNL1        0.0385
     20 C          66.4461   92.6132   11.8152 C.ar    1  UNL1        0.0746
     21 N          66.8784   92.6010   13.2516 N.ar    1  UNL1       -0.2119
     22 S          65.8045   91.9269   14.0531 S.2     1  UNL1        0.0276
     23 C          67.2191   93.1905   10.6667 C.3     1  UNL1        0.0922
     24 C          66.7115   94.4122    9.9596 C.ar    1  UNL1        0.0650
     25 C          67.2087   94.7432    8.5836 C.ar    1  UNL1        0.0151
     26 C          66.7011   95.9648    7.8765 C.ar    1  UNL1        0.0028
     27 C          65.6964   96.8554    8.5454 C.ar    1  UNL1        0.0207
     28 C          65.1993   96.5244    9.9214 C.ar    1  UNL1        0.0985
     29 N          65.7069   95.3028   10.6285 N.ar    1  UNL1       -0.2478
@<TRIPOS>BOND
     1     1     2    1
     2     2     3   ar
     3     3     4   ar
     4     4     5   ar
     5     5    11    1
     6    11    12    2
     7    12    13    1
     8    13    14    2
     9    14    15    1
    10     5     6   ar
    11     6     7   ar
    12     7     8   ar
    13     8     9   ar
    14     9    16    1
    15    16    18    1
    16    18    19   ar
    17    19    20   ar
    18    20    23    1
    19    23    24    1
    20    24    25   ar
    21    25    26   ar
    22    26    27   ar
    23    27    28   ar
    24    28    29   ar
    25    20    21   ar
    26    21    22   ar
    27     9    10   ar
    28    10     2   ar
    29     8     4   ar
    30    22    18   ar
    31    15    11    1
    32    29    24   ar
    33    16    17    1
@<TRIPOS>MOLECULE
*****
 29 33 0 0 0
SMALL
GASTEIGER

@<TRIPOS>ATOM
      1 C          62.8841   81.1972   12.0612 C.3     1  UNL1        0.0538
      2 C          62.9934   82.6818   12.2452 C.ar    1  UNL1        0.0784
      3 C          62.3842   83.6095   11.2360 C.ar    1  UNL1        0.0962
      4 N          62.4936   85.0941   11.4200 N.ar    1  UNL1       -0.2856
      5 C          61.9971   86.2466   10.5982 C.ar    1  UNL1        0.0841
      6 C          62.4087   87.5159   11.2834 C.ar    1  UNL1        0.1179
      7 N          63.1596   87.1478   12.5286 N.ar    1  UNL1       -0.2223
      8 C          63.2120   85.6511   12.6131 C.ar    1  UNL1        0.1800
      9 C          63.8212   84.7235   13.6223 C.ar    1  UNL1        0.1670
     10 N          63.7119   83.2388   13.4383 N.ar    1  UNL1       -0.2304
     11 C          61.2246   86.1472    9.3162 C.2     1  UNL1        0.0425
     12 C          59.8708   86.7377    9.0546 C.2     1  UNL1        0.1209
     13 N          59.4798   86.3953    7.6474 N.2     1  UNL1       -0.1510
     14 N          60.5921   85.5931    7.0395 N.2     1  UNL1       -0.1694
     15 C          61.6704   85.4398    8.0709 C.3     1  UNL1        0.1786
     16 N          64.5397   85.2806   14.8154 N.pl3   1  UNL1       -0.2894
     17 H          65.3692   84.8560   15.1329 H       1  UNL1        0.1542
     18 C          63.9941   86.4844   15.5247 C.ar    1  UNL1        0.0990
     19 C          64.2598   87.9160   15.1640 C.ar    1  UNL1        0.0385
     20 C          63.5171   88.7844   16.1356 C.ar    1  UNL1        0.0746
     21 N          62.7923   87.8896   17.0969 N.ar    1  UNL1       -0.2119
     22 S          63.0872   86.4682   16.7193 S.2     1  UNL1        0.0276
     23 C          63.5018   90.2843   16.1444 C.3     1  UNL1        0.0922
     24 C          64.2273   91.0481   15.0765 C.ar    1  UNL1        0.0650
     25 C          63.8349   90.8825   13.6382 C.ar    1  UNL1        0.0151
     26 C          64.5604   91.6462   12.5703 C.ar    1  UNL1        0.0028
     27 C          65.6781   92.5755   12.9407 C.ar    1  UNL1        0.0207
     28 C          66.0704   92.7411   14.3790 C.ar    1  UNL1        0.0985
     29 N          65.3449   91.9774   15.4469 N.ar    1  UNL1       -0.2478
@<TRIPOS>BOND
     1     1     2    1
     2     2     3   ar
     3     3     4   ar
     4     4     5   ar
     5     5    11    1
     6    11    12    2
     7    12    13    1
     8    13    14    2
     9    14    15    1
    10     5     6   ar
    11     6     7   ar
    12     7     8   ar
    13     8     9   ar
    14     9    16    1
    15    16    18    1
    16    18    19   ar
    17    19    20   ar
    18    20    23    1
    19    23    24    1
    20    24    25   ar
    21    25    26   ar
    22    26    27   ar
    23    27    28   ar
    24    28    29   ar
    25    20    21   ar
    26    21    22   ar
    27     9    10   ar
    28    10     2   ar
    29     8     4   ar
    30    22    18   ar
    31    15    11    1
    32    29    24   ar
    33    16    17    1
@<TRIPOS>MOLECULE
*****
 29 33 0 0 0
SMALL
GASTEIGER

@<TRIPOS>ATOM
      1 C          64.1865   84.6885   14.2343 C.3     1  UNL1        0.0538
      2 C          63.8335   86.0482   13.7084 C.ar    1  UNL1        0.0784
      3 C          63.1708   86.1857   12.3697 C.ar    1  UNL1        0.0962
      4 N          62.8178   87.5453   11.8437 N.ar    1  UNL1       -0.2856
      5 C          62.1644   87.9898   10.5687 C.ar    1  UNL1        0.0841
      6 C          62.0702   89.4866   10.5934 C.ar    1  UNL1        0.1179
      7 N          62.6655   89.9673   11.8836 N.ar    1  UNL1       -0.2223
      8 C          63.1275   88.7675   12.6563 C.ar    1  UNL1        0.1800
      9 C          63.7902   88.6301   13.9950 C.ar    1  UNL1        0.1670
     10 N          64.1432   87.2704   14.5210 N.ar    1  UNL1       -0.2304
     11 C          61.6887   87.0945    9.4632 C.2     1  UNL1        0.0425
     12 C          62.5220   86.0939    8.7187 C.2     1  UNL1        0.1209
     13 N          61.6444   85.4236    7.7034 N.2     1  UNL1       -0.1510
     14 N          60.2688   86.0100    7.8206 N.2     1  UNL1       -0.1694
     15 C          60.2961   87.0427    8.9082 C.3     1  UNL1        0.1786
     16 N          64.0998   89.8522   14.8076 N.pl3   1  UNL1       -0.2894
     17 H          63.6709   89.9823   15.6841 H       1  UNL1        0.1542
     18 C          65.0631   90.8764   14.2846 C.ar    1  UNL1        0.0990
     19 C          64.7576   91.9358   13.2677 C.ar    1  UNL1        0.0385
     20 C          66.0066   92.7351   13.0413 C.ar    1  UNL1        0.0746
     21 N          67.0840   92.1695   13.9185 N.ar    1  UNL1       -0.2119
     22 S          66.5009   91.0208   14.6869 S.2     1  UNL1        0.0276
     23 C          66.1525   93.8960   12.1027 C.3     1  UNL1        0.0922
     24 C          66.8866   93.7243   10.8059 C.ar    1  UNL1        0.0650
     25 C          67.6122   92.4432   10.5188 C.ar    1  UNL1        0.0151
     26 C          68.3462   92.2715    9.2220 C.ar    1  UNL1        0.0028
     27 C          68.3546   93.3808    8.2124 C.ar    1  UNL1        0.0207
     28 C          67.6290   94.6619    8.4995 C.ar    1  UNL1        0.0985
     29 N          66.8950   94.8336    9.7963 N.ar    1  UNL1       -0.2478
@<TRIPOS>BOND
     1     1     2    1
     2     2     3   ar
     3     3     4   ar
     4     4     5   ar
     5     5    11    1
     6    11    12    2
     7    12    13    1
     8    13    14    2
     9    14    15    1
    10     5     6   ar
    11     6     7   ar
    12     7     8   ar
    13     8     9   ar
    14     9    16    1
    15    16    18    1
    16    18    19   ar
    17    19    20   ar
    18    20    23    1
    19    23    24    1
    20    24    25   ar
    21    25    26   ar
    22    26    27   ar
    23    27    28   ar
    24    28    29   ar
    25    20    21   ar
    26    21    22   ar
    27     9    10   ar
    28    10     2   ar
    29     8     4   ar
    30    22    18   ar
    31    15    11    1
    32    29    24   ar
    33    16    17    1
@<TRIPOS>MOLECULE
*****
 29 33 0 0 0
SMALL
GASTEIGER

@<TRIPOS>ATOM
      1 C          63.4591   88.6992   16.0218 C.3     1  UNL1        0.0538
      2 C          63.5401   89.5761   14.8076 C.ar    1  UNL1        0.0784
      3 C          64.8121   90.3066   14.4935 C.ar    1  UNL1        0.0962
      4 N          64.8931   91.1835   13.2793 N.ar    1  UNL1       -0.2856
      5 C          66.0040   92.0209   12.7182 C.ar    1  UNL1        0.0841
      6 C          65.4997   92.6849   11.4713 C.ar    1  UNL1        0.1179
      7 N          64.0771   92.2579   11.2617 N.ar    1  UNL1       -0.2223
      8 C          63.7022   91.3300   12.3791 C.ar    1  UNL1        0.1800
      9 C          62.4303   90.5996   12.6932 C.ar    1  UNL1        0.1670
     10 N          62.3492   89.7226   13.9075 N.ar    1  UNL1       -0.2304
     11 C          67.3780   92.1683   13.3017 C.2     1  UNL1        0.0425
     12 C          68.6529   91.6639   12.6934 C.2     1  UNL1        0.1209
     13 N          69.7812   92.0299   13.6117 N.2     1  UNL1       -0.1510
     14 N          69.2034   92.7606   14.7875 N.2     1  UNL1       -0.1694
     15 C          67.7182   92.8462   14.5958 C.3     1  UNL1        0.1786
     16 N          61.2394   90.7461   11.7930 N.pl3   1  UNL1       -0.2894
     17 H          60.5806   91.4583   11.9602 H       1  UNL1        0.1542
     18 C          61.0523   89.8074   10.6380 C.ar    1  UNL1        0.0990
     19 C          60.0717   89.9752    9.5154 C.ar    1  UNL1        0.0385
     20 C          60.2263   88.8077    8.5864 C.ar    1  UNL1        0.0746
     21 N          61.3025   87.9183    9.1349 N.ar    1  UNL1       -0.2119
     22 S          61.8129   88.5361   10.4029 S.2     1  UNL1        0.0276
     23 C          59.4424   88.5711    7.3296 C.3     1  UNL1        0.0922
     24 C          59.2022   89.7002    6.3718 C.ar    1  UNL1        0.0650
     25 C          60.3610   90.3613    5.6861 C.ar    1  UNL1        0.0151
     26 C          60.1208   91.4904    4.7282 C.ar    1  UNL1        0.0028
     27 C          58.7218   91.9583    4.4561 C.ar    1  UNL1        0.0207
     28 C          57.5630   91.2972    5.1417 C.ar    1  UNL1        0.0985
     29 N          57.8032   90.1681    6.0996 N.ar    1  UNL1       -0.2478
@<TRIPOS>BOND
     1     1     2    1
     2     2     3   ar
     3     3     4   ar
     4     4     5   ar
     5     5    11    1
     6    11    12    2
     7    12    13    1
     8    13    14    2
     9    14    15    1
    10     5     6   ar
    11     6     7   ar
    12     7     8   ar
    13     8     9   ar
    14     9    16    1
    15    16    18    1
    16    18    19   ar
    17    19    20   ar
    18    20    23    1
    19    23    24    1
    20    24    25   ar
    21    25    26   ar
    22    26    27   ar
    23    27    28   ar
    24    28    29   ar
    25    20    21   ar
    26    21    22   ar
    27     9    10   ar
    28    10     2   ar
    29     8     4   ar
    30    22    18   ar
    31    15    11    1
    32    29    24   ar
    33    16    17    1
@<TRIPOS>MOLECULE
*****
 29 33 0 0 0
SMALL
GASTEIGER

@<TRIPOS>ATOM
      1 C          64.6874   85.9689   16.0807 C.3     1  UNL1        0.0538
      2 C          64.0911   86.2007   14.7240 C.ar    1  UNL1        0.0784
      3 C          63.7611   85.0342   13.8405 C.ar    1  UNL1        0.0962
      4 N          63.1648   85.2659   12.4839 N.ar    1  UNL1       -0.2856
      5 C          62.7385   84.3206   11.4000 C.ar    1  UNL1        0.0841
      6 C          62.2086   85.1346   10.2569 C.ar    1  UNL1        0.1179
      7 N          62.3075   86.5830   10.6343 N.ar    1  UNL1       -0.2223
      8 C          62.8984   86.6642   12.0106 C.ar    1  UNL1        0.1800
      9 C          63.2283   87.8306   12.8940 C.ar    1  UNL1        0.1670
     10 N          63.8247   87.5989   14.2508 N.ar    1  UNL1       -0.2304
     11 C          62.8266   82.8241   11.4505 C.2     1  UNL1        0.0425
     12 C          62.3777   81.9522   12.5856 C.2     1  UNL1        0.1209
     13 N          62.6528   80.5259   12.2113 N.2     1  UNL1       -0.1510
     14 N          63.2716   80.5163   10.8449 N.2     1  UNL1       -0.1694
     15 C          63.3790   81.9367   10.3747 C.3     1  UNL1        0.1786
     16 N          62.9619   89.2289   12.4207 N.pl3   1  UNL1       -0.2894
     17 H          62.2454   89.3993   11.7675 H       1  UNL1        0.1542
     18 C          63.7873   90.3674   12.9428 C.ar    1  UNL1        0.0990
     19 C          64.5362   91.3671   12.1121 C.ar    1  UNL1        0.0385
     20 C          65.2204   92.3237   13.0431 C.ar    1  UNL1        0.0746
     21 N          64.8945   91.9152   14.4492 N.ar    1  UNL1       -0.2119
     22 S          64.0088   90.7062   14.3871 S.2     1  UNL1        0.0276
     23 C          66.0797   93.4848   12.6390 C.3     1  UNL1        0.0922
     24 C          66.8447   93.4388   11.3495 C.ar    1  UNL1        0.0650
     25 C          67.5130   92.1667   10.9190 C.ar    1  UNL1        0.0151
     26 C          68.2780   92.1207    9.6295 C.ar    1  UNL1        0.0028
     27 C          68.3747   93.3466    8.7707 C.ar    1  UNL1        0.0207
     28 C          67.7065   94.6187    9.2012 C.ar    1  UNL1        0.0985
     29 N          66.9415   94.6647   10.4907 N.ar    1  UNL1       -0.2478
@<TRIPOS>BOND
     1     1     2    1
     2     2     3   ar
     3     3     4   ar
     4     4     5   ar
     5     5    11    1
     6    11    12    2
     7    12    13    1
     8    13    14    2
     9    14    15    1
    10     5     6   ar
    11     6     7   ar
    12     7     8   ar
    13     8     9   ar
    14     9    16    1
    15    16    18    1
    16    18    19   ar
    17    19    20   ar
    18    20    23    1
    19    23    24    1
    20    24    25   ar
    21    25    26   ar
    22    26    27   ar
    23    27    28   ar
    24    28    29   ar
    25    20    21   ar
    26    21    22   ar
    27     9    10   ar
    28    10     2   ar
    29     8     4   ar
    30    22    18   ar
    31    15    11    1
    32    29    24   ar
    33    16    17    1
