@<TRIPOS>MOLECULE
*****
 29 32 0 0 0
SMALL
GASTEIGER

@<TRIPOS>ATOM
      1 C          62.9830   89.7520   12.1197 C.2     1  UNL1        0.2855
      2 O          62.2036   90.4251   11.0290 O.2     1  UNL1       -0.2665
      3 N          62.9706   88.2567   12.2371 N.am    1  UNL1       -0.2735
      4 C          62.1789   87.4344   11.2640 C.3     1  UNL1        0.0941
      5 C          62.1666   85.9391   11.3814 C.3     1  UNL1        0.0259
      6 C          62.9460   85.2660   12.4720 C.3     1  UNL1        0.0257
      7 C          63.7377   86.0883   13.4452 C.3     1  UNL1        0.0259
      8 C          63.7501   87.5836   13.3278 C.3     1  UNL1        0.0941
      9 C          66.1805   93.3511   11.3858 C.ar    1  UNL1        0.0861
     10 C          66.7427   93.8999   12.6636 C.ar    1  UNL1        0.0150
     11 C          66.3033   93.3328   13.9809 C.ar    1  UNL1        0.0400
     12 C          65.3018   92.2168   14.0205 C.ar    1  UNL1        0.1705
     13 N          64.6844   91.4623   15.1603 N.ar    1  UNL1       -0.1283
     14 N          63.7406   90.4471   14.5870 N.ar    1  UNL1       -0.1236
     15 C          63.7747   90.5742   13.0928 C.ar    1  UNL1        0.2244
     16 N          64.7397   91.6681   12.7427 N.ar    1  UNL1       -0.2681
     17 C          65.1790   92.2352   11.4254 C.ar    1  UNL1        0.0933
     18 N          67.0592   94.4854    8.7512 N.1     1  UNL1       -0.1908
     19 C          66.6199   93.9183   10.0685 C.1     1  UNL1        0.1019
     20 C          62.9336   83.7706   12.5895 C.ar    1  UNL1       -0.0185
     21 C          63.0390   82.9207   11.3580 C.ar    1  UNL1       -0.0043
     22 C          63.0267   81.4254   11.4755 C.ar    1  UNL1       -0.0003
     23 C          62.9090   80.7799   12.8244 C.ar    1  UNL1       -0.0001
     24 C          62.8036   81.6299   14.0559 C.ar    1  UNL1        0.0035
     25 C          62.8160   83.1253   13.9385 C.ar    1  UNL1        0.0675
     26 C          62.7106   83.9752   15.1699 C.3     1  UNL1        0.4183
     27 F          62.6054   84.8252   16.4013 F       1  UNL1       -0.1659
     28 F          64.1478   83.6889   15.4903 F       1  UNL1       -0.1659
     29 F          61.2735   84.2615   14.8495 F       1  UNL1       -0.1659
@<TRIPOS>BOND
     1    18    19    3
     2    19     9    1
     3     9    10   ar
     4    10    11   ar
     5    11    12   ar
     6    12    13   ar
     7    13    14   ar
     8    14    15   ar
     9    15     1    1
    10     1     2    2
    11     1     3   am
    12     3     4    1
    13     4     5    1
    14     5     6    1
    15     6    20    1
    16    20    21   ar
    17    21    22   ar
    18    22    23   ar
    19    23    24   ar
    20    24    25   ar
    21    25    26    1
    22    26    27    1
    23    26    28    1
    24    26    29    1
    25     6     7    1
    26     7     8    1
    27    15    16   ar
    28    16    17   ar
    29    17     9   ar
    30    16    12   ar
    31     8     3    1
    32    25    20   ar
@<TRIPOS>MOLECULE
*****
 29 32 0 0 0
SMALL
GASTEIGER

@<TRIPOS>ATOM
      1 C          63.1593   89.2868   12.1497 C.2     1  UNL1        0.2855
      2 O          62.5312   89.9434   10.9562 O.2     1  UNL1       -0.2665
      3 N          63.0449   87.8029   12.3362 N.am    1  UNL1       -0.2735
      4 C          62.3024   86.9754   11.3292 C.3     1  UNL1        0.0941
      5 C          62.1880   85.4915   11.5157 C.3     1  UNL1        0.0259
      6 C          62.8161   84.8349   12.7092 C.3     1  UNL1        0.0257
      7 C          63.5586   85.6624   13.7162 C.3     1  UNL1        0.0259
      8 C          63.6730   87.1464   13.5297 C.3     1  UNL1        0.0941
      9 C          66.0178   93.1882   11.5799 C.ar    1  UNL1        0.0861
     10 C          66.5627   93.7053   12.8782 C.ar    1  UNL1        0.0150
     11 C          66.2065   93.0232   14.1658 C.ar    1  UNL1        0.0400
     12 C          65.3055   91.8241   14.1551 C.ar    1  UNL1        0.1705
     13 N          64.7835   90.9509   15.2574 N.ar    1  UNL1       -0.1283
     14 N          63.9160   89.8941   14.6404 N.ar    1  UNL1       -0.1236
     15 C          63.9018   90.1142   13.1567 C.ar    1  UNL1        0.2244
     16 N          64.7606   91.3070   12.8568 N.ar    1  UNL1       -0.2681
     17 C          65.1167   91.9891   11.5692 C.ar    1  UNL1        0.0933
     18 N          66.7300   94.5524    9.0047 N.1     1  UNL1       -0.1908
     19 C          66.3739   93.8703   10.2923 C.1     1  UNL1        0.1019
     20 C          62.7017   83.3510   12.8957 C.ar    1  UNL1       -0.0185
     21 C          61.9786   82.7985   14.0881 C.ar    1  UNL1       -0.0043
     22 C          61.8642   81.3145   14.2746 C.ar    1  UNL1       -0.0003
     23 C          62.4729   80.3831   13.2686 C.ar    1  UNL1       -0.0001
     24 C          63.1960   80.9356   12.0761 C.ar    1  UNL1        0.0035
     25 C          63.3104   82.4195   11.8897 C.ar    1  UNL1        0.0675
     26 C          64.0334   82.9721   10.6973 C.3     1  UNL1        0.4183
     27 F          64.7564   83.5247    9.5048 F       1  UNL1       -0.1659
     28 F          62.8787   82.5891    9.8197 F       1  UNL1       -0.1659
     29 F          65.1881   83.3551   11.5748 F       1  UNL1       -0.1659
@<TRIPOS>BOND
     1    18    19    3
     2    19     9    1
     3     9    10   ar
     4    10    11   ar
     5    11    12   ar
     6    12    13   ar
     7    13    14   ar
     8    14    15   ar
     9    15     1    1
    10     1     2    2
    11     1     3   am
    12     3     4    1
    13     4     5    1
    14     5     6    1
    15     6    20    1
    16    20    21   ar
    17    21    22   ar
    18    22    23   ar
    19    23    24   ar
    20    24    25   ar
    21    25    26    1
    22    26    27    1
    23    26    28    1
    24    26    29    1
    25     6     7    1
    26     7     8    1
    27    15    16   ar
    28    16    17   ar
    29    17     9   ar
    30    16    12   ar
    31     8     3    1
    32    25    20   ar
@<TRIPOS>MOLECULE
*****
 29 32 0 0 0
SMALL
GASTEIGER

@<TRIPOS>ATOM
      1 C          64.0745   90.8838   13.2926 C.2     1  UNL1        0.2855
      2 O          65.1971   91.8100   12.9295 O.2     1  UNL1       -0.2665
      3 N          63.2567   90.2374   12.2140 N.am    1  UNL1       -0.2735
      4 C          63.5615   90.5171   10.7722 C.3     1  UNL1        0.0941
      5 C          62.7438   89.8707    9.6936 C.3     1  UNL1        0.0259
      6 C          61.6211   88.9446   10.0567 C.3     1  UNL1        0.0257
      7 C          61.3163   88.6648   11.4986 C.3     1  UNL1        0.0259
      8 C          62.1341   89.3112   12.5773 C.3     1  UNL1        0.0941
      9 C          63.6680   86.6713   15.7023 C.ar    1  UNL1        0.0861
     10 C          63.3478   86.8604   17.1554 C.ar    1  UNL1        0.0150
     11 C          63.1884   88.2432   17.7145 C.ar    1  UNL1        0.0400
     12 C          63.3494   89.4368   16.8205 C.ar    1  UNL1        0.1705
     13 N          63.2513   90.9099   17.0857 N.ar    1  UNL1       -0.1283
     14 N          63.5110   91.6313   15.7964 N.ar    1  UNL1       -0.1236
     15 C          63.7696   90.6040   14.7344 C.ar    1  UNL1        0.2244
     16 N          63.6697   89.2477   15.3674 N.ar    1  UNL1       -0.2681
     17 C          63.8290   87.8650   14.8083 C.ar    1  UNL1        0.0933
     18 N          63.9867   83.9058   14.5840 N.1     1  UNL1       -0.1908
     19 C          63.8274   85.2886   15.1431 C.1     1  UNL1        0.1019
     20 C          60.8034   88.2982    8.9781 C.ar    1  UNL1       -0.0185
     21 C          59.8273   89.1158    8.1852 C.ar    1  UNL1       -0.0043
     22 C          59.0096   88.4694    7.1065 C.ar    1  UNL1       -0.0003
     23 C          59.1679   87.0054    6.8209 C.ar    1  UNL1       -0.0001
     24 C          60.1440   86.1878    7.6139 C.ar    1  UNL1        0.0035
     25 C          60.9617   86.8341    8.6925 C.ar    1  UNL1        0.0675
     26 C          61.9378   86.0166    9.4855 C.3     1  UNL1        0.4183
     27 F          62.9138   85.1990   10.2785 F       1  UNL1       -0.1659
     28 F          60.8650   85.7079   10.4875 F       1  UNL1       -0.1659
     29 F          63.0105   86.3253    8.4835 F       1  UNL1       -0.1659
@<TRIPOS>BOND
     1    18    19    3
     2    19     9    1
     3     9    10   ar
     4    10    11   ar
     5    11    12   ar
     6    12    13   ar
     7    13    14   ar
     8    14    15   ar
     9    15     1    1
    10     1     2    2
    11     1     3   am
    12     3     4    1
    13     4     5    1
    14     5     6    1
    15     6    20    1
    16    20    21   ar
    17    21    22   ar
    18    22    23   ar
    19    23    24   ar
    20    24    25   ar
    21    25    26    1
    22    26    27    1
    23    26    28    1
    24    26    29    1
    25     6     7    1
    26     7     8    1
    27    15    16   ar
    28    16    17   ar
    29    17     9   ar
    30    16    12   ar
    31     8     3    1
    32    25    20   ar
@<TRIPOS>MOLECULE
*****
 29 32 0 0 0
SMALL
GASTEIGER

@<TRIPOS>ATOM
      1 C          63.9019   88.4636   14.5721 C.2     1  UNL1        0.2855
      2 O          64.2100   88.9216   15.9668 O.2     1  UNL1       -0.2665
      3 N          63.5943   87.0195   14.3076 N.am    1  UNL1       -0.2735
      4 C          63.5947   86.0334   15.4378 C.3     1  UNL1        0.0941
      5 C          63.2871   84.5893   15.1734 C.3     1  UNL1        0.0259
      6 C          62.9790   84.1313   13.7786 C.3     1  UNL1        0.0257
      7 C          62.9786   85.1175   12.6483 C.3     1  UNL1        0.0259
      8 C          63.2862   86.5616   12.9128 C.3     1  UNL1        0.0941
      9 C          66.4059   92.5936   13.9481 C.ar    1  UNL1        0.0861
     10 C          66.0903   93.2753   12.6498 C.ar    1  UNL1        0.0150
     11 C          65.0927   92.6693   11.7077 C.ar    1  UNL1        0.0400
     12 C          64.4106   91.3818   12.0639 C.ar    1  UNL1        0.1705
     13 N          63.3908   90.5527   11.3410 N.ar    1  UNL1       -0.1283
     14 N          63.0761   89.3586   12.1926 N.ar    1  UNL1       -0.1236
     15 C          63.9014   89.4497   13.4418 C.ar    1  UNL1        0.2244
     16 N          64.7262   90.7001   13.3622 N.ar    1  UNL1       -0.2681
     17 C          65.7239   91.3061   14.3043 C.ar    1  UNL1        0.0933
     18 N          68.4012   93.8055   15.8324 N.1     1  UNL1       -0.1908
     19 C          67.4035   93.1995   14.8902 C.1     1  UNL1        0.1019
     20 C          62.6714   82.6872   13.5141 C.ar    1  UNL1       -0.0185
     21 C          61.7586   81.9339   14.4357 C.ar    1  UNL1       -0.0043
     22 C          61.4510   80.4898   14.1712 C.ar    1  UNL1       -0.0003
     23 C          62.0562   79.7990   12.9852 C.ar    1  UNL1       -0.0001
     24 C          62.9690   80.5524   12.0636 C.ar    1  UNL1        0.0035
     25 C          63.2766   81.9965   12.3281 C.ar    1  UNL1        0.0675
     26 C          64.1894   82.7499   11.4066 C.3     1  UNL1        0.4183
     27 F          65.1022   83.5033   10.4851 F       1  UNL1       -0.1659
     28 F          65.2956   82.6416   12.4139 F       1  UNL1       -0.1659
     29 F          63.0832   82.8582   10.3993 F       1  UNL1       -0.1659
@<TRIPOS>BOND
     1    18    19    3
     2    19     9    1
     3     9    10   ar
     4    10    11   ar
     5    11    12   ar
     6    12    13   ar
     7    13    14   ar
     8    14    15   ar
     9    15     1    1
    10     1     2    2
    11     1     3   am
    12     3     4    1
    13     4     5    1
    14     5     6    1
    15     6    20    1
    16    20    21   ar
    17    21    22   ar
    18    22    23   ar
    19    23    24   ar
    20    24    25   ar
    21    25    26    1
    22    26    27    1
    23    26    28    1
    24    26    29    1
    25     6     7    1
    26     7     8    1
    27    15    16   ar
    28    16    17   ar
    29    17     9   ar
    30    16    12   ar
    31     8     3    1
    32    25    20   ar
@<TRIPOS>MOLECULE
*****
 29 32 0 0 0
SMALL
GASTEIGER

@<TRIPOS>ATOM
      1 C          63.9370   83.3371   11.3706 C.2     1  UNL1        0.2855
      2 O          64.9166   82.5009   10.6017 O.2     1  UNL1       -0.2665
      3 N          63.1108   84.3680   10.6602 N.am    1  UNL1       -0.2735
      4 C          63.2642   84.5628    9.1808 C.3     1  UNL1        0.0941
      5 C          62.4380   85.5936    8.4704 C.3     1  UNL1        0.0259
      6 C          61.4585   86.4298    9.2393 C.3     1  UNL1        0.0257
      7 C          61.3051   86.2351   10.7187 C.3     1  UNL1        0.0259
      8 C          62.1313   85.2042   11.4292 C.3     1  UNL1        0.0941
      9 C          64.0673   86.5424   15.0348 C.ar    1  UNL1        0.0861
     10 C          63.8640   85.9020   16.3759 C.ar    1  UNL1        0.0150
     11 C          63.6505   84.4206   16.4750 C.ar    1  UNL1        0.0400
     12 C          63.6403   83.5795   15.2331 C.ar    1  UNL1        0.1705
     13 N          63.4547   82.1064   15.0200 N.ar    1  UNL1       -0.1283
     14 N          63.5432   81.8363   13.5472 N.ar    1  UNL1       -0.1236
     15 C          63.7836   83.1425   12.8500 C.ar    1  UNL1        0.2244
     16 N          63.8436   84.2199   13.8920 N.ar    1  UNL1       -0.2681
     17 C          64.0570   85.7013   13.7928 C.ar    1  UNL1        0.0933
     18 N          64.4942   89.5052   14.8364 N.1     1  UNL1       -0.1908
     19 C          64.2807   88.0238   14.9356 C.1     1  UNL1        0.1019
     20 C          60.6323   87.4607    8.5289 C.ar    1  UNL1       -0.0185
     21 C          59.8243   87.0750    7.3254 C.ar    1  UNL1       -0.0043
     22 C          58.9981   88.1059    6.6150 C.ar    1  UNL1       -0.0003
     23 C          58.9800   89.5225    7.1080 C.ar    1  UNL1       -0.0001
     24 C          59.7881   89.9082    8.3115 C.ar    1  UNL1        0.0035
     25 C          60.6143   88.8773    9.0219 C.ar    1  UNL1        0.0675
     26 C          61.4224   89.2629   10.2253 C.3     1  UNL1        0.4183
     27 F          62.2304   89.6485   11.4288 F       1  UNL1       -0.1659
     28 F          60.1645   89.3693   11.0358 F       1  UNL1       -0.1659
     29 F          62.6801   89.1565    9.4150 F       1  UNL1       -0.1659
@<TRIPOS>BOND
     1    18    19    3
     2    19     9    1
     3     9    10   ar
     4    10    11   ar
     5    11    12   ar
     6    12    13   ar
     7    13    14   ar
     8    14    15   ar
     9    15     1    1
    10     1     2    2
    11     1     3   am
    12     3     4    1
    13     4     5    1
    14     5     6    1
    15     6    20    1
    16    20    21   ar
    17    21    22   ar
    18    22    23   ar
    19    23    24   ar
    20    24    25   ar
    21    25    26    1
    22    26    27    1
    23    26    28    1
    24    26    29    1
    25     6     7    1
    26     7     8    1
    27    15    16   ar
    28    16    17   ar
    29    17     9   ar
    30    16    12   ar
    31     8     3    1
    32    25    20   ar
@<TRIPOS>MOLECULE
*****
 29 32 0 0 0
SMALL
GASTEIGER

@<TRIPOS>ATOM
      1 C          62.2847   89.1211   10.6076 C.2     1  UNL1        0.2855
      2 O          61.3243   89.4545    9.5047 O.2     1  UNL1       -0.2665
      3 N          62.3622   87.7195   11.1364 N.am    1  UNL1       -0.2735
      4 C          61.4794   86.6514   10.5623 C.3     1  UNL1        0.0941
      5 C          61.5569   85.2498   11.0911 C.3     1  UNL1        0.0259
      6 C          62.5173   84.9164   12.1940 C.3     1  UNL1        0.0257
      7 C          63.4002   85.9846   12.7681 C.3     1  UNL1        0.0259
      8 C          63.3226   87.3862   12.2394 C.3     1  UNL1        0.0941
      9 C          63.7387   89.9311   15.1843 C.ar    1  UNL1        0.0861
     10 C          64.6312   91.1303   15.3080 C.ar    1  UNL1        0.0150
     11 C          64.9821   91.9328   14.0903 C.ar    1  UNL1        0.0400
     12 C          64.4406   91.5361   12.7489 C.ar    1  UNL1        0.1705
     13 N          64.6117   92.1295   11.3820 N.ar    1  UNL1       -0.1283
     14 N          63.8249   91.2971   10.4134 N.ar    1  UNL1       -0.1236
     15 C          63.1675   90.1892   11.1818 C.ar    1  UNL1        0.2244
     16 N          63.5481   90.3370   12.6253 N.ar    1  UNL1       -0.2681
     17 C          63.1971   89.5344   13.8430 C.ar    1  UNL1        0.0933
     18 N          63.0368   88.3260   17.6197 N.1     1  UNL1       -0.1908
     19 C          63.3878   89.1286   16.4020 C.1     1  UNL1        0.1019
     20 C          62.5949   83.5148   12.7228 C.ar    1  UNL1       -0.0185
     21 C          61.9069   83.1587   14.0072 C.ar    1  UNL1       -0.0043
     22 C          61.9844   81.7571   14.5360 C.ar    1  UNL1       -0.0003
     23 C          62.7499   80.7117   13.7803 C.ar    1  UNL1       -0.0001
     24 C          63.4380   81.0679   12.4958 C.ar    1  UNL1        0.0035
     25 C          63.3604   82.4694   11.9670 C.ar    1  UNL1        0.0675
     26 C          64.0484   82.8256   10.6826 C.3     1  UNL1        0.4183
     27 F          64.7363   83.1818    9.3981 F       1  UNL1       -0.1659
     28 F          62.9987   82.0793    9.9135 F       1  UNL1       -0.1659
     29 F          65.0980   83.5719   11.4516 F       1  UNL1       -0.1659
@<TRIPOS>BOND
     1    18    19    3
     2    19     9    1
     3     9    10   ar
     4    10    11   ar
     5    11    12   ar
     6    12    13   ar
     7    13    14   ar
     8    14    15   ar
     9    15     1    1
    10     1     2    2
    11     1     3   am
    12     3     4    1
    13     4     5    1
    14     5     6    1
    15     6    20    1
    16    20    21   ar
    17    21    22   ar
    18    22    23   ar
    19    23    24   ar
    20    24    25   ar
    21    25    26    1
    22    26    27    1
    23    26    28    1
    24    26    29    1
    25     6     7    1
    26     7     8    1
    27    15    16   ar
    28    16    17   ar
    29    17     9   ar
    30    16    12   ar
    31     8     3    1
    32    25    20   ar
@<TRIPOS>MOLECULE
*****
 29 32 0 0 0
SMALL
GASTEIGER

@<TRIPOS>ATOM
      1 C          62.2303   89.2297   10.6241 C.2     1  UNL1        0.2855
      2 O          61.2265   89.5982    9.5722 O.2     1  UNL1       -0.2665
      3 N          62.3421   87.8078   11.0888 N.am    1  UNL1       -0.2735
      4 C          61.4502   86.7545   10.5016 C.3     1  UNL1        0.0941
      5 C          61.5620   85.3327   10.9663 C.3     1  UNL1        0.0259
      6 C          62.5658   84.9642   12.0183 C.3     1  UNL1        0.0257
      7 C          63.4578   86.0176   12.6055 C.3     1  UNL1        0.0259
      8 C          63.3460   87.4394   12.1408 C.3     1  UNL1        0.0941
      9 C          63.7268   89.9443   15.2030 C.ar    1  UNL1        0.0861
     10 C          64.6251   91.1375   15.3424 C.ar    1  UNL1        0.0150
     11 C          64.9687   91.9624   14.1376 C.ar    1  UNL1        0.0400
     12 C          64.4141   91.5941   12.7935 C.ar    1  UNL1        0.1705
     13 N          64.5758   92.2135   11.4370 N.ar    1  UNL1       -0.1283
     14 N          63.7774   91.4032   10.4592 N.ar    1  UNL1       -0.1236
     15 C          63.1223   90.2830   11.2114 C.ar    1  UNL1        0.2244
     16 N          63.5158   90.4010   12.6541 N.ar    1  UNL1       -0.2681
     17 C          63.1722   89.5761   13.8589 C.ar    1  UNL1        0.0933
     18 N          63.0395   88.2945   17.6125 N.1     1  UNL1       -0.1908
     19 C          63.3831   89.1194   16.4078 C.1     1  UNL1        0.1019
     20 C          62.6776   83.5424   12.4829 C.ar    1  UNL1       -0.0185
     21 C          62.6386   82.4223   11.4860 C.ar    1  UNL1       -0.0043
     22 C          62.7504   81.0005   11.9507 C.ar    1  UNL1       -0.0003
     23 C          62.9012   80.6988   13.4123 C.ar    1  UNL1       -0.0001
     24 C          62.9403   81.8190   14.4093 C.ar    1  UNL1        0.0035
     25 C          62.8285   83.2408   13.9446 C.ar    1  UNL1        0.0675
     26 C          62.8675   84.3609   14.9414 C.3     1  UNL1        0.4183
     27 F          62.9064   85.4811   15.9382 F       1  UNL1       -0.1659
     28 F          61.3701   84.4436   14.9069 F       1  UNL1       -0.1659
     29 F          64.3648   84.2782   14.9759 F       1  UNL1       -0.1659
@<TRIPOS>BOND
     1    18    19    3
     2    19     9    1
     3     9    10   ar
     4    10    11   ar
     5    11    12   ar
     6    12    13   ar
     7    13    14   ar
     8    14    15   ar
     9    15     1    1
    10     1     2    2
    11     1     3   am
    12     3     4    1
    13     4     5    1
    14     5     6    1
    15     6    20    1
    16    20    21   ar
    17    21    22   ar
    18    22    23   ar
    19    23    24   ar
    20    24    25   ar
    21    25    26    1
    22    26    27    1
    23    26    28    1
    24    26    29    1
    25     6     7    1
    26     7     8    1
    27    15    16   ar
    28    16    17   ar
    29    17     9   ar
    30    16    12   ar
    31     8     3    1
    32    25    20   ar
@<TRIPOS>MOLECULE
*****
 29 32 0 0 0
SMALL
GASTEIGER

@<TRIPOS>ATOM
      1 C          63.7864   88.8311   15.4587 C.2     1  UNL1        0.2855
      2 O          63.3760   89.2055   16.8520 O.2     1  UNL1       -0.2665
      3 N          63.6077   87.4217   14.9773 N.am    1  UNL1       -0.2735
      4 C          63.0186   86.3867   15.8892 C.3     1  UNL1        0.0941
      5 C          62.8399   84.9773   15.4079 C.3     1  UNL1        0.0259
      6 C          63.2503   84.6029   14.0146 C.3     1  UNL1        0.0257
      7 C          63.8395   85.6380   13.1026 C.3     1  UNL1        0.0259
      8 C          64.0182   87.0474   13.5839 C.3     1  UNL1        0.0941
      9 C          62.4307   90.3069   11.0201 C.ar    1  UNL1        0.0861
     10 C          63.3188   91.3819   10.4675 C.ar    1  UNL1        0.0150
     11 C          64.4792   91.8844   11.2744 C.ar    1  UNL1        0.0400
     12 C          64.7515   91.3119   12.6338 C.ar    1  UNL1        0.1705
     13 N          65.8126   91.6056   13.6525 N.ar    1  UNL1       -0.1283
     14 N          65.5802   90.7121   14.8347 N.ar    1  UNL1       -0.1236
     15 C          64.3755   89.8661   14.5466 C.ar    1  UNL1        0.2244
     16 N          63.8633   90.2368   13.1863 N.ar    1  UNL1       -0.2681
     17 C          62.7029   89.7343   12.3795 C.ar    1  UNL1        0.0933
     18 N          60.1099   89.3019    9.4065 N.1     1  UNL1       -0.1908
     19 C          61.2703   89.8044   10.2133 C.1     1  UNL1        0.1019
     20 C          63.0717   83.1935   13.5333 C.ar    1  UNL1       -0.0185
     21 C          62.9439   82.0736   14.5229 C.ar    1  UNL1       -0.0043
     22 C          62.7652   80.6642   14.0415 C.ar    1  UNL1       -0.0003
     23 C          62.7143   80.3748   12.5706 C.ar    1  UNL1       -0.0001
     24 C          62.8421   81.4948   11.5809 C.ar    1  UNL1        0.0035
     25 C          63.0208   82.9042   12.0623 C.ar    1  UNL1        0.0675
     26 C          63.1486   84.0242   11.0727 C.3     1  UNL1        0.4183
     27 F          63.2763   85.1442   10.0832 F       1  UNL1       -0.1659
     28 F          61.7354   84.4381   11.3588 F       1  UNL1       -0.1659
     29 F          64.5617   83.6103   10.7867 F       1  UNL1       -0.1659
@<TRIPOS>BOND
     1    18    19    3
     2    19     9    1
     3     9    10   ar
     4    10    11   ar
     5    11    12   ar
     6    12    13   ar
     7    13    14   ar
     8    14    15   ar
     9    15     1    1
    10     1     2    2
    11     1     3   am
    12     3     4    1
    13     4     5    1
    14     5     6    1
    15     6    20    1
    16    20    21   ar
    17    21    22   ar
    18    22    23   ar
    19    23    24   ar
    20    24    25   ar
    21    25    26    1
    22    26    27    1
    23    26    28    1
    24    26    29    1
    25     6     7    1
    26     7     8    1
    27    15    16   ar
    28    16    17   ar
    29    17     9   ar
    30    16    12   ar
    31     8     3    1
    32    25    20   ar
@<TRIPOS>MOLECULE
*****
 29 32 0 0 0
SMALL
GASTEIGER

@<TRIPOS>ATOM
      1 C          60.0605   88.3286   10.8288 C.2     1  UNL1        0.2855
      2 O          58.8445   88.1362   11.6858 O.2     1  UNL1       -0.2665
      3 N          61.2117   89.1473   11.3333 N.am    1  UNL1       -0.2735
      4 C          61.1470   89.7736   12.6947 C.3     1  UNL1        0.0941
      5 C          62.2982   90.5922   13.1992 C.3     1  UNL1        0.0259
      6 C          63.5142   90.7847   12.3422 C.3     1  UNL1        0.0257
      7 C          63.5788   90.1584   10.9806 C.3     1  UNL1        0.0259
      8 C          62.4276   89.3397   10.4762 C.3     1  UNL1        0.0941
      9 C          62.8017   84.6800    9.1289 C.ar    1  UNL1        0.0861
     10 C          62.5357   84.3762    7.6843 C.ar    1  UNL1        0.0150
     11 C          61.5123   85.1695    6.9271 C.ar    1  UNL1        0.0400
     12 C          60.7549   86.2666    7.6145 C.ar    1  UNL1        0.1705
     13 N          59.6949   87.2108    7.1299 N.ar    1  UNL1       -0.1283
     14 N          59.3058   88.0982    8.2749 N.ar    1  UNL1       -0.1236
     15 C          60.1252   87.7024    9.4673 C.ar    1  UNL1        0.2244
     16 N          61.0209   86.5704    9.0591 N.ar    1  UNL1       -0.2681
     17 C          62.0443   85.7771    9.8163 C.ar    1  UNL1        0.0933
     18 N          64.8484   83.0933   10.6433 N.1     1  UNL1       -0.1908
     19 C          63.8250   83.8867    9.8861 C.1     1  UNL1        0.1019
     20 C          64.6654   91.6034   12.8466 C.ar    1  UNL1       -0.0185
     21 C          65.3260   92.6039   11.9453 C.ar    1  UNL1       -0.0043
     22 C          66.4772   93.4226   12.4498 C.ar    1  UNL1       -0.0003
     23 C          66.9678   93.2407   13.8556 C.ar    1  UNL1       -0.0001
     24 C          66.3070   92.2401   14.7570 C.ar    1  UNL1        0.0035
     25 C          65.1558   91.4214   14.2525 C.ar    1  UNL1        0.0675
     26 C          64.4951   90.4209   15.1538 C.3     1  UNL1        0.4183
     27 F          63.8344   89.4204   16.0551 F       1  UNL1       -0.1659
     28 F          63.8909   91.5385   15.9514 F       1  UNL1       -0.1659
     29 F          65.0993   89.3034   14.3562 F       1  UNL1       -0.1659
@<TRIPOS>BOND
     1    18    19    3
     2    19     9    1
     3     9    10   ar
     4    10    11   ar
     5    11    12   ar
     6    12    13   ar
     7    13    14   ar
     8    14    15   ar
     9    15     1    1
    10     1     2    2
    11     1     3   am
    12     3     4    1
    13     4     5    1
    14     5     6    1
    15     6    20    1
    16    20    21   ar
    17    21    22   ar
    18    22    23   ar
    19    23    24   ar
    20    24    25   ar
    21    25    26    1
    22    26    27    1
    23    26    28    1
    24    26    29    1
    25     6     7    1
    26     7     8    1
    27    15    16   ar
    28    16    17   ar
    29    17     9   ar
    30    16    12   ar
    31     8     3    1
    32    25    20   ar
