@<TRIPOS>MOLECULE
*****
 35 38 0 0 0
SMALL
GASTEIGER

@<TRIPOS>ATOM
      1 O          66.6159   93.4350   13.4383 O.2     1  UNL1       -0.2673
      2 C          65.6219   92.3624   13.1042 C.ar    1  UNL1        0.2572
      3 C          65.3304   91.2750   14.0955 C.ar    1  UNL1        0.0366
      4 C          64.3365   90.2024   13.7615 C.ar    1  UNL1        0.0050
      5 C          63.6339   90.2172   12.4362 C.ar    1  UNL1        0.0158
      6 C          62.6400   89.1446   12.1023 C.ar    1  UNL1        0.0053
      7 C          61.9375   89.1594   10.7770 C.ar    1  UNL1        0.0715
      8 C          62.2290   90.2469    9.7858 C.ar    1  UNL1        0.0053
      9 C          63.2230   91.3194   10.1198 C.ar    1  UNL1        0.0172
     10 C          63.9254   91.3046   11.4450 C.ar    1  UNL1        0.0628
     11 N          64.9194   92.3772   11.7790 N.ar    1  UNL1       -0.2883
     12 C          64.0450   89.1150   14.7528 C.ar    1  UNL1        0.0344
     13 C          64.4572   87.7029   14.4598 C.ar    1  UNL1        0.0144
     14 C          64.1657   86.6154   15.4510 C.ar    1  UNL1        0.0579
     15 CL         64.5780   85.2032   15.1580 Cl      1  UNL1       -0.0822
     16 C          63.4620   86.9402   16.7353 C.ar    1  UNL1        0.0145
     17 C          63.0498   88.3524   17.0283 C.ar    1  UNL1        0.0375
     18 C          63.3412   89.4398   16.0371 C.ar    1  UNL1        0.1336
     19 O          62.9290   90.8519   16.3301 O.3     1  UNL1       -0.5055
     20 H          62.4894   91.0548   17.1323 H       1  UNL1        0.2922
     21 C          60.9435   88.0868   10.4430 C.3     1  UNL1        0.4186
     22 F          59.9496   87.0142   10.1089 F       1  UNL1       -0.1659
     23 F          61.8431   87.5941    9.3485 F       1  UNL1       -0.1659
     24 F          60.0439   88.5795   11.5375 F       1  UNL1       -0.1659
     25 C          66.0330   91.2602   15.4208 C.3     1  UNL1        0.0629
     26 C          66.0259   92.4847   16.2871 C.3     1  UNL1        0.1420
     27 O          64.7957   92.8454   17.0657 O.3     1  UNL1       -0.3816
     28 H          64.0809   93.0765   16.4521 H       1  UNL1        0.2105
     29 C          65.2109   93.4646   10.7878 C.3     1  UNL1        0.1760
     30 C          66.6026   93.6423   10.2570 C.ar    1  UNL1        0.1806
     31 N          67.0896   94.7934    9.4275 N.ar    1  UNL1       -0.1109
     32 N          68.5396   94.5627    9.1204 N.ar    1  UNL1       -0.0231
     33 N          68.9488   93.2690    9.7602 N.ar    1  UNL1       -0.0466
     34 N          67.7517   92.7003   10.4626 N.ar    1  UNL1       -0.2406
     35 H          67.7248   91.8568   10.9696 H       1  UNL1        0.1921
@<TRIPOS>BOND
     1     1     2    2
     2     2     3   ar
     3     3    25    1
     4    25    26    1
     5    26    27    1
     6     3     4   ar
     7     4    12    1
     8    12    13   ar
     9    13    14   ar
    10    14    15    1
    11    14    16   ar
    12    16    17   ar
    13    17    18   ar
    14    18    19    1
    15     4     5   ar
    16     5     6   ar
    17     6     7   ar
    18     7    21    1
    19    21    22    1
    20    21    23    1
    21    21    24    1
    22     7     8   ar
    23     8     9   ar
    24     9    10   ar
    25    10    11   ar
    26    11    29    1
    27    29    30    1
    28    30    31   ar
    29    31    32   ar
    30    32    33   ar
    31    33    34   ar
    32    11     2   ar
    33    34    30   ar
    34    18    12   ar
    35    10     5   ar
    36    27    28    1
    37    19    20    1
    38    34    35    1
@<TRIPOS>MOLECULE
*****
 35 38 0 0 0
SMALL
GASTEIGER

@<TRIPOS>ATOM
      1 O          63.8111   90.4919   12.6833 O.2     1  UNL1       -0.2673
      2 C          63.4616   89.0459   12.4906 C.ar    1  UNL1        0.2572
      3 C          62.7143   88.6119   11.2646 C.ar    1  UNL1        0.0366
      4 C          62.3649   87.1660   11.0718 C.ar    1  UNL1        0.0050
      5 C          62.7627   86.1540   12.1051 C.ar    1  UNL1        0.0158
      6 C          62.4133   84.7081   11.9124 C.ar    1  UNL1        0.0053
      7 C          62.8111   83.6962   12.9457 C.ar    1  UNL1        0.0715
      8 C          63.5584   84.1302   14.1717 C.ar    1  UNL1        0.0053
      9 C          63.9078   85.5761   14.3645 C.ar    1  UNL1        0.0172
     10 C          63.5100   86.5880   13.3312 C.ar    1  UNL1        0.0628
     11 N          63.8595   88.0340   13.5239 N.ar    1  UNL1       -0.2883
     12 C          61.6176   86.7319    9.8458 C.ar    1  UNL1        0.0344
     13 C          62.3224   85.9548    8.7737 C.ar    1  UNL1        0.0144
     14 C          61.5751   85.5208    7.5476 C.ar    1  UNL1        0.0579
     15 CL         62.2800   84.7437    6.4755 Cl      1  UNL1       -0.0822
     16 C          60.1230   85.8639    7.3936 C.ar    1  UNL1        0.0145
     17 C          59.4182   86.6411    8.4657 C.ar    1  UNL1        0.0375
     18 C          60.1655   87.0751    9.6918 C.ar    1  UNL1        0.1336
     19 O          59.4607   87.8522   10.7639 O.3     1  UNL1       -0.5055
     20 H          58.5536   88.0665   10.6677 H       1  UNL1        0.2922
     21 C          62.4616   82.2502   12.7530 C.3     1  UNL1        0.4186
     22 F          62.1122   80.8043   12.5603 F       1  UNL1       -0.1659
     23 F          62.1219   82.1382   14.2097 F       1  UNL1       -0.1659
     24 F          62.8013   82.3622   11.2963 F       1  UNL1       -0.1659
     25 C          62.3165   89.6238   10.2312 C.3     1  UNL1        0.0629
     26 C          61.2656   90.6461   10.5482 C.3     1  UNL1        0.1420
     27 O          59.9396   90.6003    9.8484 O.3     1  UNL1       -0.3816
     28 H          60.0657   90.7844    8.9044 H       1  UNL1        0.2105
     29 C          64.6067   88.4680   14.7500 C.3     1  UNL1        0.1760
     30 C          64.3811   89.8368   15.3205 C.ar    1  UNL1        0.1806
     31 N          63.2545   90.2404   16.2249 N.ar    1  UNL1       -0.1109
     32 N          63.4196   91.6953   16.5502 N.ar    1  UNL1       -0.0231
     33 N          64.6482   92.1910   15.8467 N.ar    1  UNL1       -0.0466
     34 N          65.2425   91.0424   15.0868 N.ar    1  UNL1       -0.2406
     35 H          66.0551   91.0742   14.5320 H       1  UNL1        0.1921
@<TRIPOS>BOND
     1     1     2    2
     2     2     3   ar
     3     3    25    1
     4    25    26    1
     5    26    27    1
     6     3     4   ar
     7     4    12    1
     8    12    13   ar
     9    13    14   ar
    10    14    15    1
    11    14    16   ar
    12    16    17   ar
    13    17    18   ar
    14    18    19    1
    15     4     5   ar
    16     5     6   ar
    17     6     7   ar
    18     7    21    1
    19    21    22    1
    20    21    23    1
    21    21    24    1
    22     7     8   ar
    23     8     9   ar
    24     9    10   ar
    25    10    11   ar
    26    11    29    1
    27    29    30    1
    28    30    31   ar
    29    31    32   ar
    30    32    33   ar
    31    33    34   ar
    32    11     2   ar
    33    34    30   ar
    34    18    12   ar
    35    10     5   ar
    36    27    28    1
    37    19    20    1
    38    34    35    1
@<TRIPOS>MOLECULE
*****
 35 38 0 0 0
SMALL
GASTEIGER

@<TRIPOS>ATOM
      1 O          64.7202   87.9916   15.1181 O.2     1  UNL1       -0.2673
      2 C          64.0333   87.3723   13.9371 C.ar    1  UNL1        0.2572
      3 C          63.8938   85.8815   13.8476 C.ar    1  UNL1        0.0366
      4 C          63.2070   85.2621   12.6667 C.ar    1  UNL1        0.0050
      5 C          62.6597   86.1335   11.5752 C.ar    1  UNL1        0.0158
      6 C          61.9729   85.5141   10.3943 C.ar    1  UNL1        0.0053
      7 C          61.4257   86.3856    9.3029 C.ar    1  UNL1        0.0715
      8 C          61.5653   87.8764    9.3925 C.ar    1  UNL1        0.0053
      9 C          62.2521   88.4957   10.5734 C.ar    1  UNL1        0.0172
     10 C          62.7993   87.6243   11.6647 C.ar    1  UNL1        0.0628
     11 N          63.4861   88.2437   12.8458 N.ar    1  UNL1       -0.2883
     12 C          63.0674   83.7713   12.5771 C.ar    1  UNL1        0.0344
     13 C          62.0266   83.0650   13.3944 C.ar    1  UNL1        0.0144
     14 C          61.8870   81.5742   13.3048 C.ar    1  UNL1        0.0579
     15 CL         60.8462   80.8679   14.1221 Cl      1  UNL1       -0.0822
     16 C          62.7882   80.7897   12.3980 C.ar    1  UNL1        0.0145
     17 C          63.8290   81.4959   11.5807 C.ar    1  UNL1        0.0375
     18 C          63.9686   82.9867   11.6702 C.ar    1  UNL1        0.1336
     19 O          65.0094   83.6930   10.8530 O.3     1  UNL1       -0.5055
     20 H          65.5723   83.2029   10.2865 H       1  UNL1        0.2922
     21 C          60.7388   85.7662    8.1219 C.3     1  UNL1        0.4186
     22 F          60.0520   85.1469    6.9410 F       1  UNL1       -0.1659
     23 F          59.4274   86.3205    8.5940 F       1  UNL1       -0.1659
     24 F          62.0502   85.2119    7.6499 F       1  UNL1       -0.1659
     25 C          64.4410   85.0100   14.9390 C.3     1  UNL1        0.0629
     26 C          63.6738   84.8369   16.2162 C.3     1  UNL1        0.1420
     27 O          62.2309   85.2411   16.2850 O.3     1  UNL1       -0.3816
     28 H          62.1593   86.2029   16.1818 H       1  UNL1        0.2105
     29 C          63.6257   89.7345   12.9353 C.3     1  UNL1        0.1760
     30 C          63.6904   90.4025   14.2769 C.ar    1  UNL1        0.1806
     31 N          64.6041   91.5296   14.6574 N.ar    1  UNL1       -0.1109
     32 N          64.3311   91.8844   16.0891 N.ar    1  UNL1       -0.0231
     33 N          63.2487   90.9765   16.5933 N.ar    1  UNL1       -0.0466
     34 N          62.8527   90.0607   15.4733 N.ar    1  UNL1       -0.2406
     35 H          62.1640   89.3585   15.5159 H       1  UNL1        0.1921
@<TRIPOS>BOND
     1     1     2    2
     2     2     3   ar
     3     3    25    1
     4    25    26    1
     5    26    27    1
     6     3     4   ar
     7     4    12    1
     8    12    13   ar
     9    13    14   ar
    10    14    15    1
    11    14    16   ar
    12    16    17   ar
    13    17    18   ar
    14    18    19    1
    15     4     5   ar
    16     5     6   ar
    17     6     7   ar
    18     7    21    1
    19    21    22    1
    20    21    23    1
    21    21    24    1
    22     7     8   ar
    23     8     9   ar
    24     9    10   ar
    25    10    11   ar
    26    11    29    1
    27    29    30    1
    28    30    31   ar
    29    31    32   ar
    30    32    33   ar
    31    33    34   ar
    32    11     2   ar
    33    34    30   ar
    34    18    12   ar
    35    10     5   ar
    36    27    28    1
    37    19    20    1
    38    34    35    1
@<TRIPOS>MOLECULE
*****
 35 38 0 0 0
SMALL
GASTEIGER

@<TRIPOS>ATOM
      1 O          64.9460   88.6049   14.8876 O.2     1  UNL1       -0.2673
      2 C          64.1275   87.9794   13.7973 C.ar    1  UNL1        0.2572
      3 C          63.9451   86.4911   13.7562 C.ar    1  UNL1        0.0366
      4 C          63.1267   85.8656   12.6659 C.ar    1  UNL1        0.0050
      5 C          62.4905   86.7284   11.6166 C.ar    1  UNL1        0.0158
      6 C          61.6721   86.1029   10.5263 C.ar    1  UNL1        0.0053
      7 C          61.0360   86.9657    9.4770 C.ar    1  UNL1        0.0715
      8 C          61.2185   88.4540    9.5180 C.ar    1  UNL1        0.0053
      9 C          62.0369   89.0795   10.6083 C.ar    1  UNL1        0.0172
     10 C          62.6730   88.2167   11.6576 C.ar    1  UNL1        0.0628
     11 N          63.4915   88.8422   12.7480 N.ar    1  UNL1       -0.2883
     12 C          62.9442   84.3773   12.6249 C.ar    1  UNL1        0.0344
     13 C          63.5065   83.5840   11.4828 C.ar    1  UNL1        0.0144
     14 C          63.3241   82.0957   11.4417 C.ar    1  UNL1        0.0579
     15 CL         63.8865   81.3024   10.2996 Cl      1  UNL1       -0.0822
     16 C          62.5794   81.4007   12.5428 C.ar    1  UNL1        0.0145
     17 C          62.0171   82.1940   13.6850 C.ar    1  UNL1        0.0375
     18 C          62.1995   83.6823   13.7260 C.ar    1  UNL1        0.1336
     19 O          61.6372   84.4756   14.8681 O.3     1  UNL1       -0.5055
     20 H          61.1720   84.0415   15.5559 H       1  UNL1        0.2922
     21 C          60.2175   86.3401    8.3866 C.3     1  UNL1        0.4186
     22 F          59.3991   85.7147    7.2963 F       1  UNL1       -0.1659
     23 F          61.4334   85.6161    7.8893 F       1  UNL1       -0.1659
     24 F          59.0017   87.0642    8.8839 F       1  UNL1       -0.1659
     25 C          64.5812   85.6283   14.8056 C.3     1  UNL1        0.0629
     26 C          64.0544   85.6440   16.2099 C.3     1  UNL1        0.1420
     27 O          62.8626   86.4870   16.5544 O.3     1  UNL1       -0.3816
     28 H          63.0905   87.4247   16.4561 H       1  UNL1        0.2105
     29 C          63.6739   90.3305   12.7890 C.3     1  UNL1        0.1760
     30 C          63.9680   91.0144   14.0913 C.ar    1  UNL1        0.1806
     31 N          65.0806   91.9882   14.3442 N.ar    1  UNL1       -0.1109
     32 N          65.0015   92.4203   15.7784 N.ar    1  UNL1       -0.0231
     33 N          63.8399   91.7135   16.4119 N.ar    1  UNL1       -0.0466
     34 N          63.2012   90.8447   15.3692 N.ar    1  UNL1       -0.2406
     35 H          62.4165   90.2648   15.5006 H       1  UNL1        0.1921
@<TRIPOS>BOND
     1     1     2    2
     2     2     3   ar
     3     3    25    1
     4    25    26    1
     5    26    27    1
     6     3     4   ar
     7     4    12    1
     8    12    13   ar
     9    13    14   ar
    10    14    15    1
    11    14    16   ar
    12    16    17   ar
    13    17    18   ar
    14    18    19    1
    15     4     5   ar
    16     5     6   ar
    17     6     7   ar
    18     7    21    1
    19    21    22    1
    20    21    23    1
    21    21    24    1
    22     7     8   ar
    23     8     9   ar
    24     9    10   ar
    25    10    11   ar
    26    11    29    1
    27    29    30    1
    28    30    31   ar
    29    31    32   ar
    30    32    33   ar
    31    33    34   ar
    32    11     2   ar
    33    34    30   ar
    34    18    12   ar
    35    10     5   ar
    36    27    28    1
    37    19    20    1
    38    34    35    1
@<TRIPOS>MOLECULE
*****
 35 38 0 0 0
SMALL
GASTEIGER

@<TRIPOS>ATOM
      1 O          64.7027   89.2006   14.7602 O.2     1  UNL1       -0.2673
      2 C          63.9360   88.4978   13.6792 C.ar    1  UNL1        0.2572
      3 C          63.8803   86.9991   13.6524 C.ar    1  UNL1        0.0366
      4 C          63.1137   86.2963   12.5715 C.ar    1  UNL1        0.0050
      5 C          62.4027   87.0922   11.5175 C.ar    1  UNL1        0.0158
      6 C          61.6360   86.3895   10.4366 C.ar    1  UNL1        0.0053
      7 C          60.9250   87.1854    9.3826 C.ar    1  UNL1        0.0715
      8 C          60.9807   88.6841    9.4095 C.ar    1  UNL1        0.0053
      9 C          61.7473   89.3869   10.4903 C.ar    1  UNL1        0.0172
     10 C          62.4583   88.5910   11.5443 C.ar    1  UNL1        0.0628
     11 N          63.2250   89.2938   12.6253 N.ar    1  UNL1       -0.2883
     12 C          63.0580   84.7976   12.5447 C.ar    1  UNL1        0.0344
     13 C          63.6968   84.0435   11.4163 C.ar    1  UNL1        0.0144
     14 C          63.6412   82.5447   11.3895 C.ar    1  UNL1        0.0579
     15 CL         64.2800   81.7906   10.2610 Cl      1  UNL1       -0.0822
     16 C          62.9467   81.8001   12.4909 C.ar    1  UNL1        0.0145
     17 C          62.3079   82.5543   13.6194 C.ar    1  UNL1        0.0375
     18 C          62.3636   84.0530   13.6462 C.ar    1  UNL1        0.1336
     19 O          61.7248   84.8071   14.7746 O.3     1  UNL1       -0.5055
     20 H          61.2910   84.3420   15.4626 H       1  UNL1        0.2922
     21 C          60.1583   86.4826    8.3017 C.3     1  UNL1        0.4186
     22 F          59.3916   85.7799    7.2208 F       1  UNL1       -0.1659
     23 F          58.8863   87.0996    8.8029 F       1  UNL1       -0.1659
     24 F          61.4304   85.8656    7.8005 F       1  UNL1       -0.1659
     25 C          64.5914   86.2032   14.7065 C.3     1  UNL1        0.0629
     26 C          64.0282   86.1248   16.0945 C.3     1  UNL1        0.1420
     27 O          62.9929   87.1141   16.5407 O.3     1  UNL1       -0.3816
     28 H          63.3860   88.0003   16.5749 H       1  UNL1        0.2105
     29 C          63.2807   90.7925   12.6521 C.3     1  UNL1        0.1760
     30 C          64.5469   91.5029   12.2749 C.ar    1  UNL1        0.1806
     31 N          64.8802   92.0505   10.9188 N.ar    1  UNL1       -0.1109
     32 N          66.2413   92.6764   10.9934 N.ar    1  UNL1       -0.0231
     33 N          66.7492   92.5156   12.3956 N.ar    1  UNL1       -0.0466
     34 N          65.7020   91.7903   13.1876 N.ar    1  UNL1       -0.2406
     35 H          65.7622   91.5459   14.1394 H       1  UNL1        0.1921
@<TRIPOS>BOND
     1     1     2    2
     2     2     3   ar
     3     3    25    1
     4    25    26    1
     5    26    27    1
     6     3     4   ar
     7     4    12    1
     8    12    13   ar
     9    13    14   ar
    10    14    15    1
    11    14    16   ar
    12    16    17   ar
    13    17    18   ar
    14    18    19    1
    15     4     5   ar
    16     5     6   ar
    17     6     7   ar
    18     7    21    1
    19    21    22    1
    20    21    23    1
    21    21    24    1
    22     7     8   ar
    23     8     9   ar
    24     9    10   ar
    25    10    11   ar
    26    11    29    1
    27    29    30    1
    28    30    31   ar
    29    31    32   ar
    30    32    33   ar
    31    33    34   ar
    32    11     2   ar
    33    34    30   ar
    34    18    12   ar
    35    10     5   ar
    36    27    28    1
    37    19    20    1
    38    34    35    1
@<TRIPOS>MOLECULE
*****
 35 38 0 0 0
SMALL
GASTEIGER

@<TRIPOS>ATOM
      1 O          62.3497   90.3643   12.7536 O.2     1  UNL1       -0.2673
      2 C          63.6482   91.0587   13.0397 C.ar    1  UNL1        0.2572
      3 C          64.4205   91.6950   11.9223 C.ar    1  UNL1        0.0366
      4 C          65.7190   92.3893   12.2083 C.ar    1  UNL1        0.0050
      5 C          66.2451   92.4474   13.6119 C.ar    1  UNL1        0.0158
      6 C          67.5436   93.1418   13.8979 C.ar    1  UNL1        0.0053
      7 C          68.0697   93.1999   15.3014 C.ar    1  UNL1        0.0715
      8 C          67.2973   92.5636   16.4188 C.ar    1  UNL1        0.0053
      9 C          65.9989   91.8693   16.1328 C.ar    1  UNL1        0.0172
     10 C          65.4728   91.8112   14.7293 C.ar    1  UNL1        0.0628
     11 N          64.1743   91.1168   14.4432 N.ar    1  UNL1       -0.2883
     12 C          66.4913   93.0256   11.0909 C.ar    1  UNL1        0.0344
     13 C          67.3867   92.1884   10.2263 C.ar    1  UNL1        0.0144
     14 C          68.1590   92.8247    9.1089 C.ar    1  UNL1        0.0579
     15 CL         69.0544   91.9875    8.2443 Cl      1  UNL1       -0.0822
     16 C          68.0360   94.2981    8.8560 C.ar    1  UNL1        0.0145
     17 C          67.1406   95.1353    9.7206 C.ar    1  UNL1        0.0375
     18 C          66.3683   94.4990   10.8380 C.ar    1  UNL1        0.1336
     19 O          65.4729   95.3361   11.7026 O.3     1  UNL1       -0.5055
     20 H          65.3960   96.2565   11.5446 H       1  UNL1        0.2922
     21 C          69.3682   93.8942   15.5875 C.3     1  UNL1        0.4186
     22 F          70.6667   94.5885   15.8735 F       1  UNL1       -0.1659
     23 F          70.0830   92.9264   14.6918 F       1  UNL1       -0.1659
     24 F          68.6534   94.8621   16.4832 F       1  UNL1       -0.1659
     25 C          63.8943   91.6368   10.5187 C.3     1  UNL1        0.0629
     26 C          63.0446   90.4799   10.0837 C.3     1  UNL1        0.1420
     27 O          61.5581   90.6433    9.9670 O.3     1  UNL1       -0.3816
     28 H          61.1801   90.8007   10.8464 H       1  UNL1        0.2105
     29 C          63.4019   90.4805   15.5606 C.3     1  UNL1        0.1760
     30 C          63.4471   88.9934   15.7519 C.ar    1  UNL1        0.1806
     31 N          62.8399   88.2324   16.8930 N.ar    1  UNL1       -0.1109
     32 N          63.1250   86.7749   16.6821 N.ar    1  UNL1       -0.0231
     33 N          63.9084   86.6352   15.4105 N.ar    1  UNL1       -0.0466
     34 N          64.1075   88.0063   14.8357 N.ar    1  UNL1       -0.2406
     35 H          64.5873   88.2207   14.0032 H       1  UNL1        0.1921
@<TRIPOS>BOND
     1     1     2    2
     2     2     3   ar
     3     3    25    1
     4    25    26    1
     5    26    27    1
     6     3     4   ar
     7     4    12    1
     8    12    13   ar
     9    13    14   ar
    10    14    15    1
    11    14    16   ar
    12    16    17   ar
    13    17    18   ar
    14    18    19    1
    15     4     5   ar
    16     5     6   ar
    17     6     7   ar
    18     7    21    1
    19    21    22    1
    20    21    23    1
    21    21    24    1
    22     7     8   ar
    23     8     9   ar
    24     9    10   ar
    25    10    11   ar
    26    11    29    1
    27    29    30    1
    28    30    31   ar
    29    31    32   ar
    30    32    33   ar
    31    33    34   ar
    32    11     2   ar
    33    34    30   ar
    34    18    12   ar
    35    10     5   ar
    36    27    28    1
    37    19    20    1
    38    34    35    1
@<TRIPOS>MOLECULE
*****
 35 38 0 0 0
SMALL
GASTEIGER

@<TRIPOS>ATOM
      1 O          64.4288   88.8221   14.7642 O.2     1  UNL1       -0.2673
      2 C          63.7467   88.1122   13.6325 C.ar    1  UNL1        0.2572
      3 C          63.7255   86.6129   13.5917 C.ar    1  UNL1        0.0366
      4 C          63.0433   85.9030   12.4600 C.ar    1  UNL1        0.0050
      5 C          62.3824   86.6924   11.3691 C.ar    1  UNL1        0.0158
      6 C          61.7003   85.9824   10.2374 C.ar    1  UNL1        0.0053
      7 C          61.0394   86.7718    9.1465 C.ar    1  UNL1        0.0715
      8 C          61.0606   88.2711    9.1873 C.ar    1  UNL1        0.0053
      9 C          61.7427   88.9810   10.3190 C.ar    1  UNL1        0.0172
     10 C          62.4036   88.1916   11.4098 C.ar    1  UNL1        0.0628
     11 N          63.0858   88.9016   12.5416 N.ar    1  UNL1       -0.2883
     12 C          63.0221   84.4037   12.4192 C.ar    1  UNL1        0.0344
     13 C          62.2787   83.6352   13.4712 C.ar    1  UNL1        0.0144
     14 C          62.2575   82.1359   13.4304 C.ar    1  UNL1        0.0579
     15 CL         61.5140   81.3675   14.4825 Cl      1  UNL1       -0.0822
     16 C          62.9797   81.4051   12.3377 C.ar    1  UNL1        0.0145
     17 C          63.7232   82.1735   11.2856 C.ar    1  UNL1        0.0375
     18 C          63.7444   83.6728   11.3264 C.ar    1  UNL1        0.1336
     19 O          64.4878   84.4413   10.2744 O.3     1  UNL1       -0.5055
     20 H          64.9390   83.9848    9.5917 H       1  UNL1        0.2922
     21 C          60.3572   86.0619    8.0148 C.3     1  UNL1        0.4186
     22 F          59.6752   85.3520    6.8831 F       1  UNL1       -0.1659
     23 F          61.6733   85.4865    7.5825 F       1  UNL1       -0.1659
     24 F          59.0412   86.6373    8.4470 F       1  UNL1       -0.1659
     25 C          64.3864   85.8235   14.6826 C.3     1  UNL1        0.0629
     26 C          65.7771   85.2958   14.4895 C.3     1  UNL1        0.1420
     27 O          66.0044   83.8220   14.3280 O.3     1  UNL1       -0.3816
     28 H          65.7710   83.3666   15.1521 H       1  UNL1        0.2105
     29 C          63.1070   90.4009   12.5824 C.3     1  UNL1        0.1760
     30 C          64.4113   91.1354   12.4849 C.ar    1  UNL1        0.1806
     31 N          64.9245   91.8646   11.2788 N.ar    1  UNL1       -0.1109
     32 N          66.2616   92.4496   11.6249 N.ar    1  UNL1       -0.0231
     33 N          66.5748   92.0818   13.0450 N.ar    1  UNL1       -0.0466
     34 N          65.4313   91.2696   13.5765 N.ar    1  UNL1       -0.2406
     35 H          65.3622   90.8911   14.4827 H       1  UNL1        0.1921
@<TRIPOS>BOND
     1     1     2    2
     2     2     3   ar
     3     3    25    1
     4    25    26    1
     5    26    27    1
     6     3     4   ar
     7     4    12    1
     8    12    13   ar
     9    13    14   ar
    10    14    15    1
    11    14    16   ar
    12    16    17   ar
    13    17    18   ar
    14    18    19    1
    15     4     5   ar
    16     5     6   ar
    17     6     7   ar
    18     7    21    1
    19    21    22    1
    20    21    23    1
    21    21    24    1
    22     7     8   ar
    23     8     9   ar
    24     9    10   ar
    25    10    11   ar
    26    11    29    1
    27    29    30    1
    28    30    31   ar
    29    31    32   ar
    30    32    33   ar
    31    33    34   ar
    32    11     2   ar
    33    34    30   ar
    34    18    12   ar
    35    10     5   ar
    36    27    28    1
    37    19    20    1
    38    34    35    1
@<TRIPOS>MOLECULE
*****
 35 38 0 0 0
SMALL
GASTEIGER

@<TRIPOS>ATOM
      1 O          63.6554   83.5264   14.0549 O.2     1  UNL1       -0.2673
      2 C          63.4312   84.7638   13.2372 C.ar    1  UNL1        0.2572
      3 C          62.8241   84.6592   11.8695 C.ar    1  UNL1        0.0366
      4 C          62.5999   85.8966   11.0518 C.ar    1  UNL1        0.0050
      5 C          62.9828   87.2386   11.6018 C.ar    1  UNL1        0.0158
      6 C          62.7586   88.4760   10.7841 C.ar    1  UNL1        0.0053
      7 C          63.1415   89.8179   11.3341 C.ar    1  UNL1        0.0715
      8 C          63.7486   89.9225   12.7018 C.ar    1  UNL1        0.0053
      9 C          63.9728   88.6852   13.5194 C.ar    1  UNL1        0.0172
     10 C          63.5899   87.3432   12.9695 C.ar    1  UNL1        0.0628
     11 N          63.8141   86.1058   13.7872 N.ar    1  UNL1       -0.2883
     12 C          61.9928   85.7920    9.6842 C.ar    1  UNL1        0.0344
     13 C          62.7542   85.1300    8.5743 C.ar    1  UNL1        0.0144
     14 C          62.1471   85.0254    7.2066 C.ar    1  UNL1        0.0579
     15 CL         62.9086   84.3633    6.0966 Cl      1  UNL1       -0.0822
     16 C          60.7786   85.5828    6.9489 C.ar    1  UNL1        0.0145
     17 C          60.0171   86.2449    8.0588 C.ar    1  UNL1        0.0375
     18 C          60.6242   86.3494    9.4265 C.ar    1  UNL1        0.1336
     19 O          59.8628   87.0115   10.5364 O.3     1  UNL1       -0.5055
     20 H          59.0080   87.3597   10.3754 H       1  UNL1        0.2922
     21 C          62.9174   91.0554   10.5164 C.3     1  UNL1        0.4186
     22 F          62.6931   92.2927    9.6987 F       1  UNL1       -0.1659
     23 F          61.5918   90.5173   10.0656 F       1  UNL1       -0.1659
     24 F          64.2429   91.5934   10.9672 F       1  UNL1       -0.1659
     25 C          62.4412   83.3172   11.3196 C.3     1  UNL1        0.0629
     26 C          63.5055   82.3475   10.8992 C.3     1  UNL1        0.1420
     27 O          64.9334   82.5837   11.2934 O.3     1  UNL1       -0.3816
     28 H          65.2614   83.3847   10.8556 H       1  UNL1        0.2105
     29 C          64.4212   86.2104   15.1548 C.3     1  UNL1        0.1760
     30 C          63.5438   86.4432   16.3491 C.ar    1  UNL1        0.1806
     31 N          62.8066   85.3889   17.1204 N.ar    1  UNL1       -0.1109
     32 N          62.0568   86.0651   18.2296 N.ar    1  UNL1       -0.0231
     33 N          62.3307   87.5375   18.1438 N.ar    1  UNL1       -0.0466
     34 N          63.2497   87.7711   16.9816 N.ar    1  UNL1       -0.2406
     35 H          63.5986   88.6429   16.6859 H       1  UNL1        0.1921
@<TRIPOS>BOND
     1     1     2    2
     2     2     3   ar
     3     3    25    1
     4    25    26    1
     5    26    27    1
     6     3     4   ar
     7     4    12    1
     8    12    13   ar
     9    13    14   ar
    10    14    15    1
    11    14    16   ar
    12    16    17   ar
    13    17    18   ar
    14    18    19    1
    15     4     5   ar
    16     5     6   ar
    17     6     7   ar
    18     7    21    1
    19    21    22    1
    20    21    23    1
    21    21    24    1
    22     7     8   ar
    23     8     9   ar
    24     9    10   ar
    25    10    11   ar
    26    11    29    1
    27    29    30    1
    28    30    31   ar
    29    31    32   ar
    30    32    33   ar
    31    33    34   ar
    32    11     2   ar
    33    34    30   ar
    34    18    12   ar
    35    10     5   ar
    36    27    28    1
    37    19    20    1
    38    34    35    1
