@<TRIPOS>MOLECULE
*****
 32 34 0 0 0
SMALL
GASTEIGER

@<TRIPOS>ATOM
      1 C          64.2555   89.6265   14.3490 C.3     1  UNL1        0.0377
      2 C          64.6669   90.2404   15.6543 C.3     1  UNL1        0.0075
      3 C          65.2901   91.6046   15.6782 C.3     1  UNL1        0.0219
      4 C          65.5020   92.3548   14.3966 C.3     1  UNL1        0.0950
      5 N          65.0907   91.7409   13.0914 N.am    1  UNL1       -0.2637
      6 C          65.3026   92.4912   11.8098 C.2     1  UNL1        0.3077
      7 O          64.8912   91.8772   10.5045 O.2     1  UNL1       -0.2522
      8 N          65.9258   93.8554   11.8337 N.am    1  UNL1       -0.2681
      9 C          64.4674   90.3767   13.0675 C.3     1  UNL1        0.0989
     10 H          66.1958   94.2583   12.6904 H       1  UNL1        0.1564
     11 C          66.1377   94.6055   10.5522 C.ar    1  UNL1        0.0516
     12 C          67.1040   94.0852    9.5295 C.ar    1  UNL1        0.0156
     13 C          67.3159   94.8353    8.2480 C.ar    1  UNL1        0.0127
     14 C          66.5616   96.1057    7.9890 C.ar    1  UNL1        0.0578
     15 CL         66.7735   96.8559    6.7075 Cl      1  UNL1       -0.0822
     16 C          65.5954   96.6261    9.0116 C.ar    1  UNL1        0.0127
     17 C          65.3835   95.8759   10.2932 C.ar    1  UNL1        0.0156
     18 C          63.8521   88.5308   15.2908 C.ar    1  UNL1       -0.0212
     19 C          63.1906   88.8679   16.5941 C.ar    1  UNL1       -0.0042
     20 C          62.7872   87.7722   17.5358 C.ar    1  UNL1       -0.0004
     21 C          63.0453   86.3395   17.1741 C.ar    1  UNL1        0.0038
     22 C          63.7068   86.0025   15.8708 C.ar    1  UNL1        0.0711
     23 C          64.1102   87.0981   14.9291 C.ar    1  UNL1       -0.0004
     24 C          63.9649   84.5698   15.5091 C.3     1  UNL1        0.4186
     25 F          64.2230   83.1371   15.1474 F       1  UNL1       -0.1659
     26 F          65.2751   84.9614   14.8928 F       1  UNL1       -0.1659
     27 F          62.6546   84.1782   16.1254 F       1  UNL1       -0.1659
     28 C          63.7041   88.6320   13.3707 C.3     1  UNL1        0.0116
     29 C          63.1082   89.1034   12.0774 C.3     1  UNL1        0.0421
     30 O          61.8728   88.5801    9.8526 O.co2   1  UNL1       -0.5492
     31 C          62.3592   88.1425   11.2024 C.2     1  UNL1        0.0503
     32 O          62.0967   86.7441   11.6772 O.co2   1  UNL1       -0.5492
@<TRIPOS>UNITY_ATOM_ATTR
30 1
charge -1
@<TRIPOS>BOND
     1    30    31   ar
     2    31    32   ar
     3    31    29    1
     4    29    28    1
     5    28     1    1
     6     1    18    1
     7    18    19   ar
     8    19    20   ar
     9    20    21   ar
    10    21    22   ar
    11    22    24    1
    12    24    25    1
    13    24    26    1
    14    24    27    1
    15    22    23   ar
    16     1     2    1
    17     2     3    1
    18     3     4    1
    19     4     5    1
    20     5     6   am
    21     6     7    2
    22     6     8   am
    23     8    11    1
    24    11    12   ar
    25    12    13   ar
    26    13    14   ar
    27    14    15    1
    28    14    16   ar
    29    16    17   ar
    30     5     9    1
    31     9     1    1
    32    23    18   ar
    33    17    11   ar
    34     8    10    1
@<TRIPOS>MOLECULE
*****
 32 34 0 0 0
SMALL
GASTEIGER

@<TRIPOS>ATOM
      1 C          63.9230   87.9553   14.6911 C.3     1  UNL1        0.0377
      2 C          63.7920   87.7106   16.1652 C.3     1  UNL1        0.0075
      3 C          63.5350   86.3236   16.6753 C.3     1  UNL1        0.0219
      4 C          63.4090   85.1813   15.7112 C.3     1  UNL1        0.0950
      5 N          63.5399   85.4260   14.2372 N.am    1  UNL1       -0.2637
      6 C          63.4139   84.2837   13.2732 C.2     1  UNL1        0.3077
      7 O          63.5448   84.5285   11.7991 O.2     1  UNL1       -0.2522
      8 N          63.1569   82.8967   13.7833 N.am    1  UNL1       -0.2681
      9 C          63.7969   86.8130   13.7271 C.3     1  UNL1        0.0989
     10 H          63.0709   82.7361   14.7508 H       1  UNL1        0.1564
     11 C          63.0308   81.7545   12.8192 C.ar    1  UNL1        0.0516
     12 C          63.3074   81.9701   11.3607 C.ar    1  UNL1        0.0156
     13 C          63.1814   80.8280   10.3967 C.ar    1  UNL1        0.0127
     14 C          62.7788   79.4702   10.8909 C.ar    1  UNL1        0.0578
     15 CL         62.6528   78.3279    9.9268 Cl      1  UNL1       -0.0822
     16 C          62.5023   79.2545   12.3494 C.ar    1  UNL1        0.0127
     17 C          62.6283   80.3967   13.3135 C.ar    1  UNL1        0.0156
     18 C          64.1180   89.3509   15.2051 C.ar    1  UNL1       -0.0212
     19 C          63.2752   89.8577   16.3377 C.ar    1  UNL1       -0.0042
     20 C          63.4703   91.2533   16.8517 C.ar    1  UNL1       -0.0004
     21 C          64.5082   92.1421   16.2331 C.ar    1  UNL1        0.0038
     22 C          65.3510   91.6354   15.1005 C.ar    1  UNL1        0.0711
     23 C          65.1559   90.2398   14.5865 C.ar    1  UNL1       -0.0004
     24 C          66.3889   92.5242   14.4819 C.3     1  UNL1        0.4186
     25 F          67.4269   93.4131   13.8633 F       1  UNL1       -0.1659
     26 F          66.6752   93.1254   15.8260 F       1  UNL1       -0.1659
     27 F          66.1027   91.9231   13.1378 F       1  UNL1       -0.1659
     28 C          64.1216   88.6847   13.3955 C.3     1  UNL1        0.0116
     29 C          63.1052   88.5576   12.2998 C.3     1  UNL1        0.0421
     30 O          60.7165   89.5784   12.3462 O.co2   1  UNL1       -0.5492
     31 C          62.1728   89.6954   12.0061 C.2     1  UNL1        0.0503
     32 O          62.6966   90.9499   11.3724 O.co2   1  UNL1       -0.5492
@<TRIPOS>UNITY_ATOM_ATTR
30 1
charge -1
@<TRIPOS>BOND
     1    30    31   ar
     2    31    32   ar
     3    31    29    1
     4    29    28    1
     5    28     1    1
     6     1    18    1
     7    18    19   ar
     8    19    20   ar
     9    20    21   ar
    10    21    22   ar
    11    22    24    1
    12    24    25    1
    13    24    26    1
    14    24    27    1
    15    22    23   ar
    16     1     2    1
    17     2     3    1
    18     3     4    1
    19     4     5    1
    20     5     6   am
    21     6     7    2
    22     6     8   am
    23     8    11    1
    24    11    12   ar
    25    12    13   ar
    26    13    14   ar
    27    14    15    1
    28    14    16   ar
    29    16    17   ar
    30     5     9    1
    31     9     1    1
    32    23    18   ar
    33    17    11   ar
    34     8    10    1
@<TRIPOS>MOLECULE
*****
 32 34 0 0 0
SMALL
GASTEIGER

@<TRIPOS>ATOM
      1 C          63.1156   84.6361   13.4199 C.3     1  UNL1        0.0377
      2 C          63.4318   84.1785   14.8129 C.3     1  UNL1        0.0075
      3 C          64.0523   85.1303   15.7923 C.3     1  UNL1        0.0219
      4 C          64.3566   86.5397   15.3785 C.3     1  UNL1        0.0950
      5 N          64.0404   86.9972   13.9854 N.am    1  UNL1       -0.2637
      6 C          64.3447   88.4066   13.5716 C.2     1  UNL1        0.3077
      7 O          64.0285   88.8640   12.1786 O.2     1  UNL1       -0.2522
      8 N          64.9653   89.3583   14.5510 N.am    1  UNL1       -0.2681
      9 C          63.4199   86.0454   13.0061 C.3     1  UNL1        0.0989
     10 H          65.1728   89.0580   15.4653 H       1  UNL1        0.1564
     11 C          65.2695   90.7676   14.1371 C.ar    1  UNL1        0.0516
     12 C          64.8370   91.2633   12.7890 C.ar    1  UNL1        0.0156
     13 C          65.1412   92.6725   12.3751 C.ar    1  UNL1        0.0127
     14 C          65.8780   93.5862   13.3092 C.ar    1  UNL1        0.0578
     15 CL         66.1822   94.9955   12.8953 Cl      1  UNL1       -0.0822
     16 C          66.3105   93.0905   14.6573 C.ar    1  UNL1        0.0127
     17 C          66.0062   91.6812   15.0712 C.ar    1  UNL1        0.0156
     18 C          62.6447   83.2141   13.3402 C.ar    1  UNL1       -0.0212
     19 C          61.8488   82.6234   14.4661 C.ar    1  UNL1       -0.0042
     20 C          61.3779   81.2015   14.3864 C.ar    1  UNL1       -0.0004
     21 C          61.7029   80.3703   13.1808 C.ar    1  UNL1        0.0038
     22 C          62.4988   80.9610   12.0549 C.ar    1  UNL1        0.0711
     23 C          62.9697   82.3829   12.1346 C.ar    1  UNL1       -0.0004
     24 C          62.8238   80.1297   10.8493 C.3     1  UNL1        0.4186
     25 F          63.1488   79.2985    9.6438 F       1  UNL1       -0.1659
     26 F          62.4963   78.8848   11.6194 F       1  UNL1       -0.1659
     27 F          63.1512   81.3746   10.0793 F       1  UNL1       -0.1659
     28 C          62.6358   84.5998   11.9991 C.3     1  UNL1        0.0116
     29 C          61.9575   85.7988   11.4057 C.3     1  UNL1        0.0421
     30 O          62.8502   85.4631    8.9890 O.co2   1  UNL1       -0.5492
     31 C          61.7555   85.8885    9.9220 C.2     1  UNL1        0.0503
     32 O          60.4587   86.4036    9.3716 O.co2   1  UNL1       -0.5492
@<TRIPOS>UNITY_ATOM_ATTR
30 1
charge -1
@<TRIPOS>BOND
     1    30    31   ar
     2    31    32   ar
     3    31    29    1
     4    29    28    1
     5    28     1    1
     6     1    18    1
     7    18    19   ar
     8    19    20   ar
     9    20    21   ar
    10    21    22   ar
    11    22    24    1
    12    24    25    1
    13    24    26    1
    14    24    27    1
    15    22    23   ar
    16     1     2    1
    17     2     3    1
    18     3     4    1
    19     4     5    1
    20     5     6   am
    21     6     7    2
    22     6     8   am
    23     8    11    1
    24    11    12   ar
    25    12    13   ar
    26    13    14   ar
    27    14    15    1
    28    14    16   ar
    29    16    17   ar
    30     5     9    1
    31     9     1    1
    32    23    18   ar
    33    17    11   ar
    34     8    10    1
@<TRIPOS>MOLECULE
*****
 32 34 0 0 0
SMALL
GASTEIGER

@<TRIPOS>ATOM
      1 C          63.8515   87.7302   14.2765 C.3     1  UNL1        0.0377
      2 C          63.4089   88.5955   13.1340 C.3     1  UNL1        0.0075
      3 C          62.9404   87.9672   11.8550 C.3     1  UNL1        0.0219
      4 C          62.9146   86.4736   11.7186 C.3     1  UNL1        0.0950
      5 N          63.3572   85.6084   12.8611 N.am    1  UNL1       -0.2637
      6 C          63.3313   84.1148   12.7247 C.2     1  UNL1        0.3077
      7 O          63.7740   83.2496   13.8673 O.2     1  UNL1       -0.2522
      8 N          62.8628   83.4865   11.4457 N.am    1  UNL1       -0.2681
      9 C          63.8257   86.2366   14.1401 C.3     1  UNL1        0.0989
     10 H          62.5723   84.0543   10.6958 H       1  UNL1        0.1564
     11 C          62.8370   81.9929   11.3094 C.ar    1  UNL1        0.0516
     12 C          63.1402   81.3553    9.9859 C.ar    1  UNL1        0.0156
     13 C          63.1144   79.8618    9.8495 C.ar    1  UNL1        0.0127
     14 C          62.7854   79.0058   11.0366 C.ar    1  UNL1        0.0578
     15 CL         62.7596   77.5122   10.9002 Cl      1  UNL1       -0.0822
     16 C          62.4822   79.6434   12.3600 C.ar    1  UNL1        0.0127
     17 C          62.5080   81.1370   12.4964 C.ar    1  UNL1        0.0156
     18 C          64.0557   89.0870   14.8829 C.ar    1  UNL1       -0.0212
     19 C          63.2796   89.4881   16.1022 C.ar    1  UNL1       -0.0042
     20 C          63.4839   90.8447   16.7085 C.ar    1  UNL1       -0.0004
     21 C          64.4642   91.8003   16.0955 C.ar    1  UNL1        0.0038
     22 C          65.2404   91.3992   14.8762 C.ar    1  UNL1        0.0711
     23 C          65.0361   90.0426   14.2699 C.ar    1  UNL1       -0.0004
     24 C          66.2207   92.3548   14.2632 C.3     1  UNL1        0.4186
     25 F          67.2011   93.3104   13.6502 F       1  UNL1       -0.1659
     26 F          66.1202   91.6212   12.9587 F       1  UNL1       -0.1659
     27 F          66.3213   93.0885   15.5677 F       1  UNL1       -0.1659
     28 C          64.3651   87.3362   15.6296 C.3     1  UNL1        0.0116
     29 C          63.7836   86.1472   16.3355 C.3     1  UNL1        0.0421
     30 O          62.8619   86.7864   18.6790 O.co2   1  UNL1       -0.5492
     31 C          62.6252   86.3235   17.2720 C.2     1  UNL1        0.0503
     32 O          61.2301   86.0369   16.8014 O.co2   1  UNL1       -0.5492
@<TRIPOS>UNITY_ATOM_ATTR
30 1
charge -1
@<TRIPOS>BOND
     1    30    31   ar
     2    31    32   ar
     3    31    29    1
     4    29    28    1
     5    28     1    1
     6     1    18    1
     7    18    19   ar
     8    19    20   ar
     9    20    21   ar
    10    21    22   ar
    11    22    24    1
    12    24    25    1
    13    24    26    1
    14    24    27    1
    15    22    23   ar
    16     1     2    1
    17     2     3    1
    18     3     4    1
    19     4     5    1
    20     5     6   am
    21     6     7    2
    22     6     8   am
    23     8    11    1
    24    11    12   ar
    25    12    13   ar
    26    13    14   ar
    27    14    15    1
    28    14    16   ar
    29    16    17   ar
    30     5     9    1
    31     9     1    1
    32    23    18   ar
    33    17    11   ar
    34     8    10    1
