@<TRIPOS>MOLECULE
*****
 35 38 0 0 0
SMALL
GASTEIGER

@<TRIPOS>ATOM
      1 N          63.9826   87.2007   15.4352 N.am    1  UNL1       -0.2681
      2 C          64.3353   88.3663   14.5594 C.2     1  UNL1        0.3082
      3 O          64.2073   88.2506   13.0693 O.2     1  UNL1       -0.2522
      4 N          64.8160   89.6475   15.1736 N.am    1  UNL1       -0.2681
      5 H          64.0666   87.2766   16.4132 H       1  UNL1        0.1564
      6 H          64.9000   89.7235   16.1515 H       1  UNL1        0.1564
      7 C          62.8153   84.5484   12.7236 C.ar    1  UNL1        0.0546
      8 C          62.5405   83.3569   13.5924 C.ar    1  UNL1        0.0046
      9 C          62.7464   83.4467   15.0756 C.ar    1  UNL1        0.0014
     10 C          63.2271   84.7279   15.6898 C.ar    1  UNL1        0.0147
     11 C          63.5019   85.9194   14.8210 C.ar    1  UNL1        0.0517
     12 C          63.2960   85.8297   13.3379 C.ar    1  UNL1        0.0192
     13 N          62.2198   85.6802   10.4621 N.am    1  UNL1       -0.3025
     14 C          62.6094   84.4586   11.2406 C.2     1  UNL1        0.2458
     15 O          62.7931   83.1472   10.5359 O.2     1  UNL1       -0.2701
     16 H          62.0992   86.5409   10.9246 H       1  UNL1        0.1497
     17 C          63.1253   85.1066    8.0956 C.3     1  UNL1        0.0213
     18 C          62.0139   85.5905    8.9791 C.3     1  UNL1        0.0720
     19 C          60.6966   85.9846    8.3795 C.3     1  UNL1        0.0213
     20 C          65.1687   90.8130   14.2978 C.ar    1  UNL1        0.0516
     21 C          64.2997   91.1603   13.1254 C.ar    1  UNL1        0.0147
     22 C          64.6524   92.3258   12.2496 C.ar    1  UNL1        0.0025
     23 C          65.8741   93.1441   12.5460 C.ar    1  UNL1        0.0147
     24 C          66.7431   92.7969   13.7183 C.ar    1  UNL1        0.0025
     25 C          66.3904   91.6313   14.5942 C.ar    1  UNL1        0.0147
     26 C          66.2268   94.3097   11.6701 C.2     1  UNL1        0.0795
     27 N          65.7719   95.6904   12.0399 N.2     1  UNL1       -0.2030
     28 C          66.1246   96.8559   11.1640 C.2     1  UNL1        0.3386
     29 N          66.9321   96.6407    9.9184 N.2     1  UNL1       -0.0119
     30 C          67.3869   95.2600    9.5486 C.2     1  UNL1        0.3637
     31 N          68.1890   94.7438    8.3909 N.2     1  UNL1       -0.0333
     32 C          68.3321   93.2593    8.5513 C.2     1  UNL1        0.2435
     33 C          67.6184   92.8579    9.8081 C.2     1  UNL1        0.0993
     34 CL         67.5082   91.4648   10.3530 Cl      1  UNL1       -0.0819
     35 C          67.0342   94.0945   10.4245 C.3     1  UNL1        0.1885
@<TRIPOS>BOND
     1    17    18    1
     2    18    19    1
     3    18    13    1
     4    13    14   am
     5    14    15    2
     6    14     7    1
     7     7     8   ar
     8     8     9   ar
     9     9    10   ar
    10    10    11   ar
    11    11     1    1
    12     1     2   am
    13     2     3    2
    14     2     4   am
    15     4    20    1
    16    20    21   ar
    17    21    22   ar
    18    22    23   ar
    19    23    26    1
    20    26    27    2
    21    27    28    1
    22    28    29    2
    23    29    30    1
    24    30    31    2
    25    31    32    1
    26    32    33    2
    27    33    34    1
    28    33    35    1
    29    23    24   ar
    30    24    25   ar
    31    11    12   ar
    32    12     7   ar
    33    25    20   ar
    34    35    26    1
    35    35    30    1
    36    13    16    1
    37     1     5    1
    38     4     6    1
@<TRIPOS>MOLECULE
*****
 35 38 0 0 0
SMALL
GASTEIGER

@<TRIPOS>ATOM
      1 N          58.9006   90.4338    6.1429 N.am    1  UNL1       -0.2681
      2 C          59.8927   91.0528    5.2034 C.2     1  UNL1        0.3082
      3 O          61.3251   90.6082    5.2255 O.2     1  UNL1       -0.2522
      4 N          59.4523   92.1164    4.2417 N.am    1  UNL1       -0.2681
      5 H          57.9605   90.7256    6.1284 H       1  UNL1        0.1564
      6 H          58.5121   92.4082    4.2272 H       1  UNL1        0.1564
      7 C          60.4581   88.6890    9.3492 C.ar    1  UNL1        0.0546
      8 C          60.2218   87.2430    9.0279 C.ar    1  UNL1        0.0046
      9 C          59.5451   86.8606    7.7450 C.ar    1  UNL1        0.0014
     10 C          59.1047   87.9242    6.7833 C.ar    1  UNL1        0.0147
     11 C          59.3410   89.3702    7.1045 C.ar    1  UNL1        0.0517
     12 C          60.0177   89.7526    8.3874 C.ar    1  UNL1        0.0192
     13 N          62.5916   89.4288   10.6340 N.am    1  UNL1       -0.3025
     14 C          61.1348   89.0715   10.6320 C.2     1  UNL1        0.2458
     15 O          60.3546   89.0966   11.9130 O.2     1  UNL1       -0.2701
     16 H          63.1036   89.4124    9.7933 H       1  UNL1        0.1497
     17 C          63.6349   91.2429   12.1736 C.3     1  UNL1        0.0213
     18 C          63.2683   89.8113   11.9169 C.3     1  UNL1        0.0720
     19 C          63.5783   88.7621   12.9431 C.3     1  UNL1        0.0213
     20 C          60.4443   92.7354    3.3022 C.ar    1  UNL1        0.0516
     21 C          60.1164   94.0237    2.6072 C.ar    1  UNL1        0.0147
     22 C          61.1084   94.6426    1.6678 C.ar    1  UNL1        0.0025
     23 C          62.4284   93.9734    1.4232 C.ar    1  UNL1        0.0147
     24 C          62.7564   92.6853    2.1182 C.ar    1  UNL1        0.0025
     25 C          61.7643   92.0662    3.0577 C.ar    1  UNL1        0.0147
     26 C          63.4205   94.5925    0.4837 C.2     1  UNL1        0.0795
     27 N          64.4865   95.5053    1.0133 N.2     1  UNL1       -0.2030
     28 C          65.4785   96.1243    0.0737 C.2     1  UNL1        0.3386
     29 N          65.4045   95.8305   -1.3953 N.2     1  UNL1       -0.0119
     30 C          64.3385   94.9177   -1.9249 C.2     1  UNL1        0.3637
     31 N          64.0191   94.4465   -3.3127 N.2     1  UNL1       -0.0333
     32 C          62.8296   93.5362   -3.2308 C.2     1  UNL1        0.2435
     33 C          62.4139   93.4449   -1.7925 C.2     1  UNL1        0.0993
     34 CL         61.2671   92.6409   -1.2555 Cl      1  UNL1       -0.0819
     35 C          63.3465   94.2987   -0.9854 C.3     1  UNL1        0.1885
@<TRIPOS>BOND
     1    17    18    1
     2    18    19    1
     3    18    13    1
     4    13    14   am
     5    14    15    2
     6    14     7    1
     7     7     8   ar
     8     8     9   ar
     9     9    10   ar
    10    10    11   ar
    11    11     1    1
    12     1     2   am
    13     2     3    2
    14     2     4   am
    15     4    20    1
    16    20    21   ar
    17    21    22   ar
    18    22    23   ar
    19    23    26    1
    20    26    27    2
    21    27    28    1
    22    28    29    2
    23    29    30    1
    24    30    31    2
    25    31    32    1
    26    32    33    2
    27    33    34    1
    28    33    35    1
    29    23    24   ar
    30    24    25   ar
    31    11    12   ar
    32    12     7   ar
    33    25    20   ar
    34    35    26    1
    35    35    30    1
    36    13    16    1
    37     1     5    1
    38     4     6    1
@<TRIPOS>MOLECULE
*****
 35 38 0 0 0
SMALL
GASTEIGER

@<TRIPOS>ATOM
      1 N          58.9781   88.7342    6.2621 N.am    1  UNL1       -0.2681
      2 C          59.8327   88.4428    7.4600 C.2     1  UNL1        0.3082
      3 O          60.7853   89.4820    7.9724 O.2     1  UNL1       -0.2522
      4 N          59.7348   87.1122    8.1453 N.am    1  UNL1       -0.2681
      5 H          58.3529   88.0521    5.9258 H       1  UNL1        0.1564
      6 H          59.1096   86.4301    7.8090 H       1  UNL1        0.1564
      7 C          60.4284   91.7718    4.1598 C.ar    1  UNL1        0.0546
      8 C          59.2721   92.7262    4.2059 C.ar    1  UNL1        0.0046
      9 C          58.0177   92.3499    4.9375 C.ar    1  UNL1        0.0014
     10 C          57.9198   91.0192    5.6229 C.ar    1  UNL1        0.0147
     11 C          59.0761   90.0649    5.5767 C.ar    1  UNL1        0.0517
     12 C          60.3303   90.4411    4.8452 C.ar    1  UNL1        0.0192
     13 N          61.6494   93.2302    2.3900 N.am    1  UNL1       -0.3025
     14 C          61.6826   92.1480    3.4283 C.2     1  UNL1        0.2458
     15 O          62.9702   91.4422    3.7350 O.2     1  UNL1       -0.2701
     16 H          60.8044   93.6934    2.1886 H       1  UNL1        0.1497
     17 C          63.0713   93.2322    0.2156 C.3     1  UNL1        0.0213
     18 C          62.9037   93.6064    1.6584 C.3     1  UNL1        0.0720
     19 C          63.9904   94.3568    2.3698 C.3     1  UNL1        0.0213
     20 C          60.5894   86.8208    9.3431 C.ar    1  UNL1        0.0516
     21 C          60.2321   87.4025   10.6788 C.ar    1  UNL1        0.0147
     22 C          61.0867   87.1111   11.8766 C.ar    1  UNL1        0.0025
     23 C          62.2986   86.2381   11.7387 C.ar    1  UNL1        0.0147
     24 C          62.6559   85.6564   10.4031 C.ar    1  UNL1        0.0025
     25 C          61.8013   85.9477    9.2053 C.ar    1  UNL1        0.0147
     26 C          63.1532   85.9467   12.9366 C.2     1  UNL1        0.0795
     27 N          63.7823   87.0735   13.7011 N.2     1  UNL1       -0.2030
     28 C          64.6368   86.7821   14.8989 C.2     1  UNL1        0.3386
     29 N          64.8624   85.3639   15.3322 N.2     1  UNL1       -0.0119
     30 C          64.2334   84.2371   14.5677 C.2     1  UNL1        0.3637
     31 N          64.2759   82.7496   14.7559 N.2     1  UNL1       -0.0333
     32 C          63.4475   82.1216   13.6744 C.2     1  UNL1        0.2435
     33 C          62.8931   83.2210   12.8178 C.2     1  UNL1        0.0993
     34 CL         62.0083   83.0441   11.6195 Cl      1  UNL1       -0.0819
     35 C          63.3788   84.5285   13.3699 C.3     1  UNL1        0.1885
@<TRIPOS>BOND
     1    17    18    1
     2    18    19    1
     3    18    13    1
     4    13    14   am
     5    14    15    2
     6    14     7    1
     7     7     8   ar
     8     8     9   ar
     9     9    10   ar
    10    10    11   ar
    11    11     1    1
    12     1     2   am
    13     2     3    2
    14     2     4   am
    15     4    20    1
    16    20    21   ar
    17    21    22   ar
    18    22    23   ar
    19    23    26    1
    20    26    27    2
    21    27    28    1
    22    28    29    2
    23    29    30    1
    24    30    31    2
    25    31    32    1
    26    32    33    2
    27    33    34    1
    28    33    35    1
    29    23    24   ar
    30    24    25   ar
    31    11    12   ar
    32    12     7   ar
    33    25    20   ar
    34    35    26    1
    35    35    30    1
    36    13    16    1
    37     1     5    1
    38     4     6    1
@<TRIPOS>MOLECULE
*****
 35 38 0 0 0
SMALL
GASTEIGER

@<TRIPOS>ATOM
      1 N          64.1794   90.4569   16.0728 N.am    1  UNL1       -0.2681
      2 C          64.0888   89.0725   15.5023 C.2     1  UNL1        0.3082
      3 O          64.8972   88.7053   14.2933 O.2     1  UNL1       -0.2522
      4 N          63.1900   88.0555   16.1408 N.am    1  UNL1       -0.2681
      5 H          63.6488   90.6980   16.8663 H       1  UNL1        0.1564
      6 H          62.6595   88.2965   16.9343 H       1  UNL1        0.1564
      7 C          66.0938   92.5559   13.3017 C.ar    1  UNL1        0.0546
      8 C          66.8759   93.5080   14.1572 C.ar    1  UNL1        0.0046
      9 C          66.7591   93.4430   15.6513 C.ar    1  UNL1        0.0014
     10 C          65.8602   92.4260   16.2898 C.ar    1  UNL1        0.0147
     11 C          65.0782   91.4739   15.4343 C.ar    1  UNL1        0.0517
     12 C          65.1949   91.5389   13.9403 C.ar    1  UNL1        0.0192
     13 N          67.4511   93.1796   11.1759 N.am    1  UNL1       -0.3025
     14 C          66.2106   92.6208   11.8077 C.2     1  UNL1        0.2458
     15 O          65.0869   92.1271   10.9454 O.2     1  UNL1       -0.2701
     16 H          68.1886   93.5036   11.7418 H       1  UNL1        0.1497
     17 C          66.8929   94.3492    8.9242 C.3     1  UNL1        0.0213
     18 C          67.5678   93.2445    9.6819 C.3     1  UNL1        0.0720
     19 C          68.3595   92.2047    8.9456 C.3     1  UNL1        0.0213
     20 C          63.0996   86.6712   15.5703 C.ar    1  UNL1        0.0516
     21 C          64.2261   86.1255   14.7437 C.ar    1  UNL1        0.0147
     22 C          64.1356   84.7413   14.1732 C.ar    1  UNL1        0.0025
     23 C          62.9187   83.9026   14.4292 C.ar    1  UNL1        0.0147
     24 C          61.7921   84.4482   15.2558 C.ar    1  UNL1        0.0025
     25 C          61.8826   85.8325   15.8263 C.ar    1  UNL1        0.0147
     26 C          62.8282   82.5182   13.8587 C.2     1  UNL1        0.0795
     27 N          62.5019   81.3585   14.7523 N.2     1  UNL1       -0.2030
     28 C          62.4115   79.9743   14.1817 C.2     1  UNL1        0.3386
     29 N          62.6474   79.7497   12.7175 N.2     1  UNL1       -0.0119
     30 C          62.9737   80.9094   11.8239 C.2     1  UNL1        0.3637
     31 N          63.2545   80.9951   10.3529 N.2     1  UNL1       -0.0333
     32 C          63.5184   82.4324   10.0143 C.2     1  UNL1        0.2435
     33 C          63.4008   83.2349   11.2761 C.2     1  UNL1        0.0993
     34 CL         63.5871   84.7183   11.3981 Cl      1  UNL1       -0.0819
     35 C          63.0641   82.2936   12.3945 C.3     1  UNL1        0.1885
@<TRIPOS>BOND
     1    17    18    1
     2    18    19    1
     3    18    13    1
     4    13    14   am
     5    14    15    2
     6    14     7    1
     7     7     8   ar
     8     8     9   ar
     9     9    10   ar
    10    10    11   ar
    11    11     1    1
    12     1     2   am
    13     2     3    2
    14     2     4   am
    15     4    20    1
    16    20    21   ar
    17    21    22   ar
    18    22    23   ar
    19    23    26    1
    20    26    27    2
    21    27    28    1
    22    28    29    2
    23    29    30    1
    24    30    31    2
    25    31    32    1
    26    32    33    2
    27    33    34    1
    28    33    35    1
    29    23    24   ar
    30    24    25   ar
    31    11    12   ar
    32    12     7   ar
    33    25    20   ar
    34    35    26    1
    35    35    30    1
    36    13    16    1
    37     1     5    1
    38     4     6    1
@<TRIPOS>MOLECULE
*****
 35 38 0 0 0
SMALL
GASTEIGER

@<TRIPOS>ATOM
      1 N          61.5709   92.0421    3.6224 N.am    1  UNL1       -0.2681
      2 C          61.4322   92.5648    2.2233 C.2     1  UNL1        0.3082
      3 O          60.0809   92.6218    1.5745 O.2     1  UNL1       -0.2522
      4 N          62.6446   93.0305    1.4730 N.am    1  UNL1       -0.2681
      5 H          62.4577   92.0046    4.0483 H       1  UNL1        0.1564
      6 H          63.5315   92.9931    1.8988 H       1  UNL1        0.1564
      7 C          59.2797   90.0634    6.1886 C.ar    1  UNL1        0.0546
      8 C          57.9334   90.6449    5.8734 C.ar    1  UNL1        0.0046
      9 C          57.7996   91.6922    4.8078 C.ar    1  UNL1        0.0014
     10 C          59.0121   92.1579    4.0575 C.ar    1  UNL1        0.0147
     11 C          60.3584   91.5764    4.3727 C.ar    1  UNL1        0.0517
     12 C          60.4922   90.5291    5.4382 C.ar    1  UNL1        0.0192
     13 N          60.3706   89.2207    8.3908 N.am    1  UNL1       -0.3025
     14 C          59.4135   89.0161    7.2541 C.2     1  UNL1        0.2458
     15 O          58.5902   87.7643    7.1829 O.2     1  UNL1       -0.2701
     16 H          60.9109   90.0423    8.4376 H       1  UNL1        0.1497
     17 C          61.2142   86.8862    9.1578 C.3     1  UNL1        0.0213
     18 C          60.5044   88.1734    9.4563 C.3     1  UNL1        0.0720
     19 C          59.9283   88.4134   10.8204 C.3     1  UNL1        0.0213
     20 C          62.5059   93.5532    0.0739 C.ar    1  UNL1        0.0516
     21 C          63.3938   94.6641   -0.4032 C.ar    1  UNL1        0.0147
     22 C          63.2551   95.1868   -1.8023 C.ar    1  UNL1        0.0025
     23 C          62.2284   94.5986   -2.7243 C.ar    1  UNL1        0.0147
     24 C          61.3405   93.4878   -2.2473 C.ar    1  UNL1        0.0025
     25 C          61.4792   92.9651   -0.8481 C.ar    1  UNL1        0.0147
     26 C          62.0897   95.1214   -4.1235 C.2     1  UNL1        0.0795
     27 N          61.2464   96.3325   -4.3914 N.2     1  UNL1       -0.2030
     28 C          61.1077   96.8552   -5.7905 C.2     1  UNL1        0.3386
     29 N          61.8123   96.1668   -6.9217 N.2     1  UNL1       -0.0119
     30 C          62.6557   94.9556   -6.6537 C.2     1  UNL1        0.3637
     31 N          63.4628   94.0741   -7.5600 N.2     1  UNL1       -0.0333
     32 C          64.1004   93.0065   -6.7210 C.2     1  UNL1        0.2435
     33 C          63.6873   93.2283   -5.2962 C.2     1  UNL1        0.0993
     34 CL         64.0953   92.3923   -4.1195 Cl      1  UNL1       -0.0819
     35 C          62.7944   94.4329   -5.2546 C.3     1  UNL1        0.1885
@<TRIPOS>BOND
     1    17    18    1
     2    18    19    1
     3    18    13    1
     4    13    14   am
     5    14    15    2
     6    14     7    1
     7     7     8   ar
     8     8     9   ar
     9     9    10   ar
    10    10    11   ar
    11    11     1    1
    12     1     2   am
    13     2     3    2
    14     2     4   am
    15     4    20    1
    16    20    21   ar
    17    21    22   ar
    18    22    23   ar
    19    23    26    1
    20    26    27    2
    21    27    28    1
    22    28    29    2
    23    29    30    1
    24    30    31    2
    25    31    32    1
    26    32    33    2
    27    33    34    1
    28    33    35    1
    29    23    24   ar
    30    24    25   ar
    31    11    12   ar
    32    12     7   ar
    33    25    20   ar
    34    35    26    1
    35    35    30    1
    36    13    16    1
    37     1     5    1
    38     4     6    1
@<TRIPOS>MOLECULE
*****
 35 38 0 0 0
SMALL
GASTEIGER

@<TRIPOS>ATOM
      1 N          61.0021   92.4277    3.6707 N.am    1  UNL1       -0.2681
      2 C          60.7545   92.8731    2.2599 C.2     1  UNL1        0.3082
      3 O          59.4185   92.6337    1.6213 O.2     1  UNL1       -0.2522
      4 N          61.8429   93.5579    1.4876 N.am    1  UNL1       -0.2681
      5 H          61.8790   92.5849    4.0898 H       1  UNL1        0.1564
      6 H          62.7198   93.7150    1.9067 H       1  UNL1        0.1564
      7 C          59.1733   90.0343    6.2547 C.ar    1  UNL1        0.0546
      8 C          57.7368   90.3734    5.9875 C.ar    1  UNL1        0.0046
      9 C          57.3887   91.3973    4.9480 C.ar    1  UNL1        0.0014
     10 C          58.4771   92.0821    4.1758 C.ar    1  UNL1        0.0147
     11 C          59.9137   91.7430    4.4430 C.ar    1  UNL1        0.0517
     12 C          60.2618   90.7191    5.4824 C.ar    1  UNL1        0.0192
     13 N          60.3261   89.4060    8.4967 N.am    1  UNL1       -0.3025
     14 C          59.5214   89.0104    7.2941 C.2     1  UNL1        0.2458
     15 O          59.0649   87.5909    7.1311 O.2     1  UNL1       -0.2701
     16 H          60.6258   90.3377    8.6037 H       1  UNL1        0.1497
     17 C          61.7845   87.4055    9.2845 C.3     1  UNL1        0.0213
     18 C          60.6742   88.3821    9.5361 C.3     1  UNL1        0.0720
     19 C          59.9120   88.3349   10.8272 C.3     1  UNL1        0.0213
     20 C          61.5953   94.0032    0.0769 C.ar    1  UNL1        0.0516
     21 C          60.7874   95.2389   -0.1887 C.ar    1  UNL1        0.0147
     22 C          60.5398   95.6842   -1.5995 C.ar    1  UNL1        0.0025
     23 C          61.1001   94.8939   -2.7447 C.ar    1  UNL1        0.0147
     24 C          61.9079   93.6583   -2.4792 C.ar    1  UNL1        0.0025
     25 C          62.1556   93.2129   -1.0684 C.ar    1  UNL1        0.0147
     26 C          60.8524   95.3393   -4.1556 C.2     1  UNL1        0.0795
     27 N          61.7752   96.3293   -4.8024 N.2     1  UNL1       -0.2030
     28 C          61.5275   96.7746   -6.2132 C.2     1  UNL1        0.3386
     29 N          60.3571   96.2300   -6.9771 N.2     1  UNL1       -0.0119
     30 C          59.4343   95.2401   -6.3302 C.2     1  UNL1        0.3637
     31 N          58.2084   94.5351   -6.8303 N.2     1  UNL1       -0.0333
     32 C          57.6984   93.6540   -5.7287 C.2     1  UNL1        0.2435
     33 C          58.6091   93.8145   -4.5477 C.2     1  UNL1        0.0993
     34 CL         58.4713   93.1172   -3.2268 Cl      1  UNL1       -0.0819
     35 C          59.6820   94.7948   -4.9194 C.3     1  UNL1        0.1885
@<TRIPOS>BOND
     1    17    18    1
     2    18    19    1
     3    18    13    1
     4    13    14   am
     5    14    15    2
     6    14     7    1
     7     7     8   ar
     8     8     9   ar
     9     9    10   ar
    10    10    11   ar
    11    11     1    1
    12     1     2   am
    13     2     3    2
    14     2     4   am
    15     4    20    1
    16    20    21   ar
    17    21    22   ar
    18    22    23   ar
    19    23    26    1
    20    26    27    2
    21    27    28    1
    22    28    29    2
    23    29    30    1
    24    30    31    2
    25    31    32    1
    26    32    33    2
    27    33    34    1
    28    33    35    1
    29    23    24   ar
    30    24    25   ar
    31    11    12   ar
    32    12     7   ar
    33    25    20   ar
    34    35    26    1
    35    35    30    1
    36    13    16    1
    37     1     5    1
    38     4     6    1
@<TRIPOS>MOLECULE
*****
 35 38 0 0 0
SMALL
GASTEIGER

@<TRIPOS>ATOM
      1 N          64.7642   90.9908   15.6294 N.am    1  UNL1       -0.2681
      2 C          64.6950   89.7116   14.8490 C.2     1  UNL1        0.3082
      3 O          65.4816   89.5635   13.5804 O.2     1  UNL1       -0.2522
      4 N          63.8393   88.5805   15.3373 N.am    1  UNL1       -0.2681
      5 H          64.2479   91.0880   16.4620 H       1  UNL1        0.1564
      6 H          63.3230   88.6777   16.1699 H       1  UNL1        0.1564
      7 C          66.2838   93.7945   13.2673 C.ar    1  UNL1        0.0546
      8 C          67.3314   94.3840   14.1646 C.ar    1  UNL1        0.0046
      9 C          67.5232   93.8423   15.5503 C.ar    1  UNL1        0.0014
     10 C          66.6674   92.7113   16.0385 C.ar    1  UNL1        0.0147
     11 C          65.6199   92.1218   15.1412 C.ar    1  UNL1        0.0517
     12 C          65.4281   92.6634   13.7556 C.ar    1  UNL1        0.0192
     13 N          66.2043   95.8108   11.6306 N.am    1  UNL1       -0.3025
     14 C          66.0920   94.3361   11.8817 C.2     1  UNL1        0.2458
     15 O          65.7879   93.4032   10.7472 O.2     1  UNL1       -0.2701
     16 H          66.4039   96.4231   12.3752 H       1  UNL1        0.1497
     17 C          64.6661   96.8558    9.8164 C.3     1  UNL1        0.0213
     18 C          66.0125   96.3523   10.2451 C.3     1  UNL1        0.0720
     19 C          67.1670   96.3904    9.2882 C.3     1  UNL1        0.0213
     20 C          63.7701   87.3014   14.5569 C.ar    1  UNL1        0.0516
     21 C          64.4140   86.0583   15.0958 C.ar    1  UNL1        0.0147
     22 C          64.3448   84.7792   14.3154 C.ar    1  UNL1        0.0025
     23 C          63.6319   84.7431   12.9962 C.ar    1  UNL1        0.0147
     24 C          62.9881   85.9861   12.4573 C.ar    1  UNL1        0.0025
     25 C          63.0572   87.2653   13.2376 C.ar    1  UNL1        0.0147
     26 C          63.5628   83.4638   12.2158 C.2     1  UNL1        0.0795
     27 N          64.1833   83.3824   10.8526 N.2     1  UNL1       -0.2030
     28 C          64.1141   82.1033   10.0723 C.2     1  UNL1        0.3386
     29 N          63.4245   80.9055   10.6552 N.2     1  UNL1       -0.0119
     30 C          62.8041   80.9869   12.0184 C.2     1  UNL1        0.3637
     31 N          62.0633   79.9787   12.8459 N.2     1  UNL1       -0.0333
     32 C          61.6747   80.6347   14.1376 C.2     1  UNL1        0.2435
     33 C          62.1752   82.0484   14.1085 C.2     1  UNL1        0.0993
     34 CL         62.0072   83.0658   15.1978 Cl      1  UNL1       -0.0819
     35 C          62.8732   82.2661   12.7987 C.3     1  UNL1        0.1885
@<TRIPOS>BOND
     1    17    18    1
     2    18    19    1
     3    18    13    1
     4    13    14   am
     5    14    15    2
     6    14     7    1
     7     7     8   ar
     8     8     9   ar
     9     9    10   ar
    10    10    11   ar
    11    11     1    1
    12     1     2   am
    13     2     3    2
    14     2     4   am
    15     4    20    1
    16    20    21   ar
    17    21    22   ar
    18    22    23   ar
    19    23    26    1
    20    26    27    2
    21    27    28    1
    22    28    29    2
    23    29    30    1
    24    30    31    2
    25    31    32    1
    26    32    33    2
    27    33    34    1
    28    33    35    1
    29    23    24   ar
    30    24    25   ar
    31    11    12   ar
    32    12     7   ar
    33    25    20   ar
    34    35    26    1
    35    35    30    1
    36    13    16    1
    37     1     5    1
    38     4     6    1
@<TRIPOS>MOLECULE
*****
 35 38 0 0 0
SMALL
GASTEIGER

@<TRIPOS>ATOM
      1 N          63.6260   91.7780   10.3492 N.am    1  UNL1       -0.2681
      2 C          63.5648   90.4127   10.9675 C.2     1  UNL1        0.3082
      3 O          64.4489   90.0762   12.1316 O.2     1  UNL1       -0.2522
      4 N          62.6194   89.3840   10.4218 N.am    1  UNL1       -0.2681
      5 H          63.0457   91.9989    9.5852 H       1  UNL1        0.1564
      6 H          62.0391   89.6048    9.6577 H       1  UNL1        0.1564
      7 C          66.1046   93.6625   12.8099 C.ar    1  UNL1        0.0546
      8 C          66.4621   94.8643   11.9866 C.ar    1  UNL1        0.0046
      9 C          65.8742   95.0374   10.6174 C.ar    1  UNL1        0.0014
     10 C          64.9289   94.0086   10.0717 C.ar    1  UNL1        0.0147
     11 C          64.5714   92.8068   10.8950 C.ar    1  UNL1        0.0517
     12 C          65.1592   92.6337   12.2641 C.ar    1  UNL1        0.0192
     13 N          68.1815   93.4872   14.3611 N.am    1  UNL1       -0.3025
     14 C          66.6925   93.4895   14.1790 C.2     1  UNL1        0.2458
     15 O          65.7915   93.3187   15.3660 O.2     1  UNL1       -0.2701
     16 H          68.7728   93.5993   13.5820 H       1  UNL1        0.1497
     17 C          68.7170   91.9756   16.4051 C.3     1  UNL1        0.0213
     18 C          68.7693   93.3141   15.7302 C.3     1  UNL1        0.0720
     19 C          69.4095   94.4796   16.4243 C.3     1  UNL1        0.0213
     20 C          62.5582   88.0187   11.0401 C.ar    1  UNL1        0.0516
     21 C          63.3284   87.7281   12.2941 C.ar    1  UNL1        0.0147
     22 C          63.2672   86.3628   12.9124 C.ar    1  UNL1        0.0025
     23 C          62.4358   85.2882   12.2768 C.ar    1  UNL1        0.0147
     24 C          61.6656   85.5788   11.0229 C.ar    1  UNL1        0.0025
     25 C          61.7268   86.9441   10.4045 C.ar    1  UNL1        0.0147
     26 C          62.3746   83.9229   12.8952 C.2     1  UNL1        0.0795
     27 N          61.8985   83.7603   14.3082 N.2     1  UNL1       -0.2030
     28 C          61.8373   82.3951   14.9266 C.2     1  UNL1        0.3386
     29 N          62.2522   81.1925   14.1318 N.2     1  UNL1       -0.0119
     30 C          62.7283   81.3551   12.7187 C.2     1  UNL1        0.3637
     31 N          63.1987   80.3623   11.6975 N.2     1  UNL1       -0.0333
     32 C          63.5505   81.1139   10.4479 C.2     1  UNL1        0.2435
     33 C          63.2977   82.5713   10.6969 C.2     1  UNL1        0.0993
     34 CL         63.5148   83.6842    9.7150 Cl      1  UNL1       -0.0819
     35 C          62.7895   82.7204   12.1004 C.3     1  UNL1        0.1885
@<TRIPOS>BOND
     1    17    18    1
     2    18    19    1
     3    18    13    1
     4    13    14   am
     5    14    15    2
     6    14     7    1
     7     7     8   ar
     8     8     9   ar
     9     9    10   ar
    10    10    11   ar
    11    11     1    1
    12     1     2   am
    13     2     3    2
    14     2     4   am
    15     4    20    1
    16    20    21   ar
    17    21    22   ar
    18    22    23   ar
    19    23    26    1
    20    26    27    2
    21    27    28    1
    22    28    29    2
    23    29    30    1
    24    30    31    2
    25    31    32    1
    26    32    33    2
    27    33    34    1
    28    33    35    1
    29    23    24   ar
    30    24    25   ar
    31    11    12   ar
    32    12     7   ar
    33    25    20   ar
    34    35    26    1
    35    35    30    1
    36    13    16    1
    37     1     5    1
    38     4     6    1
@<TRIPOS>MOLECULE
*****
 35 38 0 0 0
SMALL
GASTEIGER

@<TRIPOS>ATOM
      1 N          73.6324   77.5187   10.6748 N.am    1  UNL1       -0.2681
      2 C          73.0813   76.6787   11.7887 C.2     1  UNL1        0.3082
      3 O          72.0791   77.2601   12.7413 O.2     1  UNL1       -0.2522
      4 N          73.5326   75.2573   11.9499 N.am    1  UNL1       -0.2681
      5 H          74.2902   77.1372   10.0495 H       1  UNL1        0.1564
      6 H          74.1904   74.8757   11.3247 H       1  UNL1        0.1564
      7 C          72.3407   80.8758    8.9980 C.ar    1  UNL1        0.0546
      8 C          72.2787   81.7830   10.1910 C.ar    1  UNL1        0.0046
      9 C          72.6680   81.2687   11.5453 C.ar    1  UNL1        0.0014
     10 C          73.1192   79.8473   11.7065 C.ar    1  UNL1        0.0147
     11 C          73.1812   78.9401   10.5135 C.ar    1  UNL1        0.0517
     12 C          72.7919   79.4544    9.1593 C.ar    1  UNL1        0.0192
     13 N          71.6898   80.4280    6.5229 N.am    1  UNL1       -0.3025
     14 C          71.9514   81.3900    7.6438 C.2     1  UNL1        0.2458
     15 O          71.8237   82.8662    7.4103 O.2     1  UNL1       -0.2701
     16 H          71.7736   79.4592    6.6762 H       1  UNL1        0.1497
     17 C          72.3012   81.6820    4.3313 C.3     1  UNL1        0.0213
     18 C          71.3005   80.9423    5.1687 C.3     1  UNL1        0.0720
     19 C          69.9105   80.7168    4.6519 C.3     1  UNL1        0.0213
     20 C          72.9815   74.4173   13.0638 C.ar    1  UNL1        0.0516
     21 C          73.6330   74.4421   14.4148 C.ar    1  UNL1        0.0147
     22 C          73.0819   73.6021   15.5286 C.ar    1  UNL1        0.0025
     23 C          71.8795   72.7373   15.2916 C.ar    1  UNL1        0.0147
     24 C          71.2280   72.7125   13.9407 C.ar    1  UNL1        0.0025
     25 C          71.7791   73.5525   12.8267 C.ar    1  UNL1        0.0147
     26 C          71.3285   71.8973   16.4055 C.2     1  UNL1        0.0795
     27 N          70.4033   72.5062   17.4170 N.2     1  UNL1       -0.2030
     28 C          69.8523   71.6662   18.5309 C.2     1  UNL1        0.3386
     29 N          70.2265   70.2173   18.6333 N.2     1  UNL1       -0.0119
     30 C          71.1517   69.6083   17.6218 C.2     1  UNL1        0.3637
     31 N          71.6949   68.2188   17.4668 N.2     1  UNL1       -0.0333
     32 C          72.5817   68.2000   16.2571 C.2     1  UNL1        0.2435
     33 C          72.5865   69.5779   15.6644 C.2     1  UNL1        0.0993
     34 CL         73.3423   70.0097   14.4428 Cl      1  UNL1       -0.0819
     35 C          71.7027   70.4483   16.5079 C.3     1  UNL1        0.1885
@<TRIPOS>BOND
     1    17    18    1
     2    18    19    1
     3    18    13    1
     4    13    14   am
     5    14    15    2
     6    14     7    1
     7     7     8   ar
     8     8     9   ar
     9     9    10   ar
    10    10    11   ar
    11    11     1    1
    12     1     2   am
    13     2     3    2
    14     2     4   am
    15     4    20    1
    16    20    21   ar
    17    21    22   ar
    18    22    23   ar
    19    23    26    1
    20    26    27    2
    21    27    28    1
    22    28    29    2
    23    29    30    1
    24    30    31    2
    25    31    32    1
    26    32    33    2
    27    33    34    1
    28    33    35    1
    29    23    24   ar
    30    24    25   ar
    31    11    12   ar
    32    12     7   ar
    33    25    20   ar
    34    35    26    1
    35    35    30    1
    36    13    16    1
    37     1     5    1
    38     4     6    1
