@<TRIPOS>MOLECULE
*****
 28 32 0 0 0
SMALL
GASTEIGER

@<TRIPOS>ATOM
      1 C          61.4464   87.5120    9.9764 C.ar    1  UNL1        0.0542
      2 C          59.9996   87.7138   10.3171 C.ar    1  UNL1        0.0149
      3 C          59.6021   88.7708   11.3043 C.ar    1  UNL1        0.0013
      4 C          60.6513   89.6260   11.9508 C.ar    1  UNL1        0.0021
      5 C          62.0980   89.4241   11.6100 C.ar    1  UNL1        0.0251
      6 C          62.4955   88.3671   10.6228 C.ar    1  UNL1        0.0169
      7 C          63.1472   90.2793   12.2565 C.ar    1  UNL1        0.1107
      8 N          63.9312   91.3694   11.5879 N.ar    1  UNL1       -0.2383
      9 C          64.8651   91.9584   12.6032 C.ar    1  UNL1        0.0878
     10 C          65.8771   93.0620   12.5150 C.ar    1  UNL1        0.0196
     11 C          66.6823   93.4395   13.7229 C.ar    1  UNL1        0.0016
     12 C          66.4755   92.7134   15.0190 C.ar    1  UNL1        0.0006
     13 C          65.4635   91.6098   15.1073 C.ar    1  UNL1        0.0080
     14 C          64.6583   91.2322   13.8994 C.ar    1  UNL1        0.0485
     15 S          63.5966   90.1946   13.6851 S.2     1  UNL1       -0.0665
     16 O          59.6915   86.9298    7.6139 O.2     1  UNL1       -0.2745
     17 C          60.9665   86.1638    7.8079 C.2     1  UNL1        0.2291
     18 N          61.8440   86.4549    8.9891 N.am    1  UNL1       -0.2543
     19 C          61.3641   85.1068    6.8206 C.3     1  UNL1        0.0771
     20 C          62.4257   84.4003    6.0309 C.3     1  UNL1        0.0096
     21 C          60.9910   83.9826    5.9004 C.3     1  UNL1        0.0096
     22 C          63.1190   85.6890    9.1832 C.3     1  UNL1        0.1263
     23 C          63.1703   84.5534   10.1620 C.ar    1  UNL1        0.0172
     24 C          63.8968   83.2900    9.8075 C.ar    1  UNL1        0.0005
     25 C          63.9481   82.1545   10.7863 C.ar    1  UNL1        0.0204
     26 C          63.2728   82.2826   12.1196 C.ar    1  UNL1        0.0989
     27 N          62.5462   83.5460   12.4740 N.ar    1  UNL1       -0.2426
     28 C          62.4949   84.6815   11.4952 C.ar    1  UNL1        0.0962
@<TRIPOS>BOND
     1    16    17    2
     2    17    19    1
     3    19    20    1
     4    20    21    1
     5    17    18   am
     6    18    22    1
     7    22    23    1
     8    23    24   ar
     9    24    25   ar
    10    25    26   ar
    11    26    27   ar
    12    27    28   ar
    13    18     1    1
    14     1     2   ar
    15     2     3   ar
    16     3     4   ar
    17     4     5   ar
    18     5     7    1
    19     7     8   ar
    20     8     9   ar
    21     9    10   ar
    22    10    11   ar
    23    11    12   ar
    24    12    13   ar
    25    13    14   ar
    26    14    15   ar
    27     5     6   ar
    28    21    19    1
    29    28    23   ar
    30     6     1   ar
    31    15     7   ar
    32    14     9   ar
@<TRIPOS>MOLECULE
*****
 28 32 0 0 0
SMALL
GASTEIGER

@<TRIPOS>ATOM
      1 C          63.3599   89.7595   12.2766 C.ar    1  UNL1        0.0542
      2 C          62.7294   90.2167   10.9947 C.ar    1  UNL1        0.0149
      3 C          62.1084   89.2160   10.0658 C.ar    1  UNL1        0.0013
      4 C          62.1179   87.7582   10.4187 C.ar    1  UNL1        0.0021
      5 C          62.7484   87.3010   11.7006 C.ar    1  UNL1        0.0251
      6 C          63.3694   88.3017   12.6296 C.ar    1  UNL1        0.0169
      7 C          62.7579   85.8432   12.0536 C.ar    1  UNL1        0.1107
      8 N          62.7089   85.2712   13.4394 N.ar    1  UNL1       -0.2383
      9 C          62.7388   83.7758   13.3250 C.ar    1  UNL1        0.0878
     10 C          62.7132   82.6894   14.3590 C.ar    1  UNL1        0.0196
     11 C          62.7553   81.2508   13.9364 C.ar    1  UNL1        0.0016
     12 C          62.8229   80.8986   12.4799 C.ar    1  UNL1        0.0006
     13 C          62.8484   81.9850   11.4460 C.ar    1  UNL1        0.0080
     14 C          62.8064   83.4236   11.8685 C.ar    1  UNL1        0.0485
     15 S          62.8182   84.7013   11.0828 S.2     1  UNL1       -0.0665
     16 O          63.5834   89.1501   15.2055 O.2     1  UNL1       -0.2745
     17 C          64.0927   90.4555   14.6701 C.2     1  UNL1        0.2291
     18 N          63.9810   90.7602   13.2056 N.am    1  UNL1       -0.2543
     19 C          64.7137   91.4561   15.5991 C.3     1  UNL1        0.0771
     20 C          65.8747   92.3231   15.9865 C.3     1  UNL1        0.0096
     21 C          64.6282   92.3221   16.8209 C.3     1  UNL1        0.0096
     22 C          64.4902   92.0655   12.6702 C.3     1  UNL1        0.1263
     23 C          65.8216   92.1255   11.9818 C.ar    1  UNL1        0.0172
     24 C          65.8978   92.4770   10.5256 C.ar    1  UNL1        0.0005
     25 C          67.2292   92.5370    9.8372 C.ar    1  UNL1        0.0204
     26 C          68.4843   92.2455   10.6051 C.ar    1  UNL1        0.0989
     27 N          68.4081   91.8941   12.0613 N.ar    1  UNL1       -0.2426
     28 C          67.0768   91.8340   12.7496 C.ar    1  UNL1        0.0962
@<TRIPOS>BOND
     1    16    17    2
     2    17    19    1
     3    19    20    1
     4    20    21    1
     5    17    18   am
     6    18    22    1
     7    22    23    1
     8    23    24   ar
     9    24    25   ar
    10    25    26   ar
    11    26    27   ar
    12    27    28   ar
    13    18     1    1
    14     1     2   ar
    15     2     3   ar
    16     3     4   ar
    17     4     5   ar
    18     5     7    1
    19     7     8   ar
    20     8     9   ar
    21     9    10   ar
    22    10    11   ar
    23    11    12   ar
    24    12    13   ar
    25    13    14   ar
    26    14    15   ar
    27     5     6   ar
    28    21    19    1
    29    28    23   ar
    30     6     1   ar
    31    15     7   ar
    32    14     9   ar
@<TRIPOS>MOLECULE
*****
 28 32 0 0 0
SMALL
GASTEIGER

@<TRIPOS>ATOM
      1 C          63.9950   89.9389   13.9189 C.ar    1  UNL1        0.0542
      2 C          63.8069   90.2991   15.3628 C.ar    1  UNL1        0.0149
      3 C          63.5489   89.2240   16.3765 C.ar    1  UNL1        0.0013
      4 C          63.4789   87.7887   15.9462 C.ar    1  UNL1        0.0021
      5 C          63.6669   87.4286   14.5023 C.ar    1  UNL1        0.0251
      6 C          63.9250   88.5036   13.4887 C.ar    1  UNL1        0.0169
      7 C          63.5970   85.9933   14.0721 C.ar    1  UNL1        0.1107
      8 N          63.0957   85.4926   12.7500 N.ar    1  UNL1       -0.2383
      9 C          63.2049   83.9966   12.7492 C.ar    1  UNL1        0.0878
     10 C          62.8599   82.9656   11.7158 C.ar    1  UNL1        0.0196
     11 C          63.0836   81.5107   12.0040 C.ar    1  UNL1        0.0016
     12 C          63.6524   81.0868   13.3257 C.ar    1  UNL1        0.0006
     13 C          63.9973   82.1177   14.3591 C.ar    1  UNL1        0.0080
     14 C          63.7736   83.5726   14.0709 C.ar    1  UNL1        0.0485
     15 S          64.0159   84.8067   14.8885 S.2     1  UNL1       -0.0665
     16 O          66.5430   91.5190   14.0239 O.2     1  UNL1       -0.2745
     17 C          65.5271   91.8041   12.9577 C.2     1  UNL1        0.2291
     18 N          64.2531   91.0140   12.9052 N.am    1  UNL1       -0.2543
     19 C          65.7853   92.8791   11.9440 C.3     1  UNL1        0.0771
     20 C          65.8966   93.3159   10.5134 C.3     1  UNL1        0.0096
     21 C          66.1211   94.3045   11.6190 C.3     1  UNL1        0.0096
     22 C          63.2373   91.2990   11.8390 C.3     1  UNL1        0.1263
     23 C          62.2862   90.2242   11.4027 C.ar    1  UNL1        0.0172
     24 C          62.6353   89.3394   10.2429 C.ar    1  UNL1        0.0005
     25 C          61.6843   88.2647    9.8066 C.ar    1  UNL1        0.0204
     26 C          60.3841   88.0748   10.5301 C.ar    1  UNL1        0.0989
     27 N          60.0350   88.9596   11.6899 N.ar    1  UNL1       -0.2426
     28 C          60.9860   90.0343   12.1262 C.ar    1  UNL1        0.0962
@<TRIPOS>BOND
     1    16    17    2
     2    17    19    1
     3    19    20    1
     4    20    21    1
     5    17    18   am
     6    18    22    1
     7    22    23    1
     8    23    24   ar
     9    24    25   ar
    10    25    26   ar
    11    26    27   ar
    12    27    28   ar
    13    18     1    1
    14     1     2   ar
    15     2     3   ar
    16     3     4   ar
    17     4     5   ar
    18     5     7    1
    19     7     8   ar
    20     8     9   ar
    21     9    10   ar
    22    10    11   ar
    23    11    12   ar
    24    12    13   ar
    25    13    14   ar
    26    14    15   ar
    27     5     6   ar
    28    21    19    1
    29    28    23   ar
    30     6     1   ar
    31    15     7   ar
    32    14     9   ar
@<TRIPOS>MOLECULE
*****
 28 32 0 0 0
SMALL
GASTEIGER

@<TRIPOS>ATOM
      1 C          62.8983   89.8104   12.1193 C.ar    1  UNL1        0.0542
      2 C          61.7328   90.3440   11.3404 C.ar    1  UNL1        0.0149
      3 C          60.8002   89.3982   10.6436 C.ar    1  UNL1        0.0013
      4 C          61.0332   87.9186   10.7257 C.ar    1  UNL1        0.0021
      5 C          62.1987   87.3850   11.5046 C.ar    1  UNL1        0.0251
      6 C          63.1313   88.3309   12.2014 C.ar    1  UNL1        0.0169
      7 C          62.4317   85.9055   11.5867 C.ar    1  UNL1        0.1107
      8 N          62.3125   85.0613   12.8208 N.ar    1  UNL1       -0.2383
      9 C          62.6319   83.6444   12.4459 C.ar    1  UNL1        0.0878
     10 C          62.6754   82.3789   13.2499 C.ar    1  UNL1        0.0196
     11 C          63.0355   81.0819   12.5881 C.ar    1  UNL1        0.0016
     12 C          63.3521   81.0504   11.1222 C.ar    1  UNL1        0.0006
     13 C          63.3086   82.3160   10.3182 C.ar    1  UNL1        0.0080
     14 C          62.9486   83.6130   10.9801 C.ar    1  UNL1        0.0485
     15 S          62.8248   85.0104   10.4490 S.2     1  UNL1       -0.0665
     16 O          64.4985   91.7853   10.5258 O.2     1  UNL1       -0.2745
     17 C          64.6310   91.7438   12.0194 C.2     1  UNL1        0.2291
     18 N          63.8309   90.7563   12.8162 N.am    1  UNL1       -0.2543
     19 C          65.5636   92.6896   12.7162 C.3     1  UNL1        0.0771
     20 C          66.3527   93.9653   12.7249 C.3     1  UNL1        0.0096
     21 C          66.3899   93.0523   13.9144 C.3     1  UNL1        0.0096
     22 C          63.9634   90.7148   14.3097 C.3     1  UNL1        0.1263
     23 C          63.8043   89.4147   15.0409 C.ar    1  UNL1        0.0172
     24 C          64.5166   88.1880   14.5534 C.ar    1  UNL1        0.0005
     25 C          64.3575   86.8880   15.2846 C.ar    1  UNL1        0.0204
     26 C          63.4861   86.8147   16.5033 C.ar    1  UNL1        0.0989
     27 N          62.7738   88.0415   16.9908 N.ar    1  UNL1       -0.2426
     28 C          62.9329   89.3414   16.2596 C.ar    1  UNL1        0.0962
@<TRIPOS>BOND
     1    16    17    2
     2    17    19    1
     3    19    20    1
     4    20    21    1
     5    17    18   am
     6    18    22    1
     7    22    23    1
     8    23    24   ar
     9    24    25   ar
    10    25    26   ar
    11    26    27   ar
    12    27    28   ar
    13    18     1    1
    14     1     2   ar
    15     2     3   ar
    16     3     4   ar
    17     4     5   ar
    18     5     7    1
    19     7     8   ar
    20     8     9   ar
    21     9    10   ar
    22    10    11   ar
    23    11    12   ar
    24    12    13   ar
    25    13    14   ar
    26    14    15   ar
    27     5     6   ar
    28    21    19    1
    29    28    23   ar
    30     6     1   ar
    31    15     7   ar
    32    14     9   ar
@<TRIPOS>MOLECULE
*****
 28 32 0 0 0
SMALL
GASTEIGER

@<TRIPOS>ATOM
      1 C          61.8462   86.9256   10.6419 C.ar    1  UNL1        0.0542
      2 C          60.5438   87.2437    9.9691 C.ar    1  UNL1        0.0149
      3 C          60.1707   88.6702    9.6939 C.ar    1  UNL1        0.0013
      4 C          61.0999   89.7786   10.0914 C.ar    1  UNL1        0.0021
      5 C          62.4023   89.4605   10.7641 C.ar    1  UNL1        0.0251
      6 C          62.7754   88.0340   11.0393 C.ar    1  UNL1        0.0169
      7 C          63.3315   90.5689   11.1616 C.ar    1  UNL1        0.1107
      8 N          63.8138   91.6766   10.2726 N.ar    1  UNL1       -0.2383
      9 C          64.7220   92.5565   11.0794 C.ar    1  UNL1        0.0878
     10 C          65.4872   93.7983   10.7298 C.ar    1  UNL1        0.0196
     11 C          66.3314   94.4762   11.7678 C.ar    1  UNL1        0.0016
     12 C          66.4104   93.9123   13.1556 C.ar    1  UNL1        0.0006
     13 C          65.6452   92.6705   13.5052 C.ar    1  UNL1        0.0080
     14 C          64.8010   91.9926   12.4671 C.ar    1  UNL1        0.0485
     15 S          63.9416   90.7642   12.5179 S.2     1  UNL1       -0.0665
     16 O          63.4806   85.3913    8.6483 O.2     1  UNL1       -0.2745
     17 C          63.0366   84.7319    9.9203 C.2     1  UNL1        0.2291
     18 N          62.2194   85.4990   10.9171 N.am    1  UNL1       -0.2543
     19 C          63.4098   83.3054   10.1956 C.3     1  UNL1        0.0771
     20 C          63.0119   81.8709   10.3799 C.3     1  UNL1        0.0096
     21 C          64.4541   82.2691   10.4880 C.3     1  UNL1        0.0096
     22 C          61.7753   84.8397   12.1892 C.3     1  UNL1        0.1263
     23 C          62.7708   84.5592   13.2757 C.ar    1  UNL1        0.0172
     24 C          63.8106   85.5830   13.6228 C.ar    1  UNL1        0.0005
     25 C          64.8060   85.3025   14.7092 C.ar    1  UNL1        0.0204
     26 C          64.7615   83.9982   15.4487 C.ar    1  UNL1        0.0989
     27 N          63.7216   82.9744   15.1016 N.ar    1  UNL1       -0.2426
     28 C          62.7263   83.2549   14.0151 C.ar    1  UNL1        0.0962
@<TRIPOS>BOND
     1    16    17    2
     2    17    19    1
     3    19    20    1
     4    20    21    1
     5    17    18   am
     6    18    22    1
     7    22    23    1
     8    23    24   ar
     9    24    25   ar
    10    25    26   ar
    11    26    27   ar
    12    27    28   ar
    13    18     1    1
    14     1     2   ar
    15     2     3   ar
    16     3     4   ar
    17     4     5   ar
    18     5     7    1
    19     7     8   ar
    20     8     9   ar
    21     9    10   ar
    22    10    11   ar
    23    11    12   ar
    24    12    13   ar
    25    13    14   ar
    26    14    15   ar
    27     5     6   ar
    28    21    19    1
    29    28    23   ar
    30     6     1   ar
    31    15     7   ar
    32    14     9   ar
@<TRIPOS>MOLECULE
*****
 28 32 0 0 0
SMALL
GASTEIGER

@<TRIPOS>ATOM
      1 C          62.1038   86.5076   11.4517 C.ar    1  UNL1        0.0542
      2 C          60.7496   86.8848   10.9285 C.ar    1  UNL1        0.0149
      3 C          60.3243   88.3231   10.9162 C.ar    1  UNL1        0.0013
      4 C          61.2532   89.3844   11.4269 C.ar    1  UNL1        0.0021
      5 C          62.6075   89.0072   11.9501 C.ar    1  UNL1        0.0251
      6 C          63.0328   87.5689   11.9624 C.ar    1  UNL1        0.0169
      7 C          63.5364   90.0684   12.4608 C.ar    1  UNL1        0.1107
      8 N          64.0548   91.2379   11.6775 N.ar    1  UNL1       -0.2383
      9 C          64.9489   92.0388   12.5772 C.ar    1  UNL1        0.0878
     10 C          65.7362   93.2951   12.3498 C.ar    1  UNL1        0.0196
     11 C          66.5578   93.8768   13.4618 C.ar    1  UNL1        0.0016
     12 C          66.5920   93.2023   14.8012 C.ar    1  UNL1        0.0006
     13 C          65.8046   91.9460   15.0285 C.ar    1  UNL1        0.0080
     14 C          64.9830   91.3642   13.9165 C.ar    1  UNL1        0.0485
     15 S          64.1101   90.1465   13.8446 S.2     1  UNL1       -0.0665
     16 O          63.2908   85.2732    8.9885 O.2     1  UNL1       -0.2745
     17 C          63.1227   84.4520   10.2325 C.2     1  UNL1        0.2291
     18 N          62.5292   85.0692   11.4641 N.am    1  UNL1       -0.2543
     19 C          63.5481   83.0137   10.2448 C.3     1  UNL1        0.0771
     20 C          63.2162   81.5624   10.4279 C.3     1  UNL1        0.0096
     21 C          64.6168   81.9737   10.0831 C.3     1  UNL1        0.0096
     22 C          62.3611   84.2481   12.7080 C.3     1  UNL1        0.1263
     23 C          62.7566   84.8143   14.0396 C.ar    1  UNL1        0.0172
     24 C          64.0817   85.4986   14.2000 C.ar    1  UNL1        0.0005
     25 C          64.4771   86.0647   15.5315 C.ar    1  UNL1        0.0204
     26 C          63.5474   85.9465   16.7027 C.ar    1  UNL1        0.0989
     27 N          62.2223   85.2623   16.5424 N.ar    1  UNL1       -0.2426
     28 C          61.8269   84.6961   15.2108 C.ar    1  UNL1        0.0962
@<TRIPOS>BOND
     1    16    17    2
     2    17    19    1
     3    19    20    1
     4    20    21    1
     5    17    18   am
     6    18    22    1
     7    22    23    1
     8    23    24   ar
     9    24    25   ar
    10    25    26   ar
    11    26    27   ar
    12    27    28   ar
    13    18     1    1
    14     1     2   ar
    15     2     3   ar
    16     3     4   ar
    17     4     5   ar
    18     5     7    1
    19     7     8   ar
    20     8     9   ar
    21     9    10   ar
    22    10    11   ar
    23    11    12   ar
    24    12    13   ar
    25    13    14   ar
    26    14    15   ar
    27     5     6   ar
    28    21    19    1
    29    28    23   ar
    30     6     1   ar
    31    15     7   ar
    32    14     9   ar
@<TRIPOS>MOLECULE
*****
 28 32 0 0 0
SMALL
GASTEIGER

@<TRIPOS>ATOM
      1 C          63.1604   89.0474   12.2473 C.ar    1  UNL1        0.0542
      2 C          63.5044   88.6567   13.6540 C.ar    1  UNL1        0.0149
      3 C          64.4275   89.5156   14.4665 C.ar    1  UNL1        0.0013
      4 C          65.0067   90.7651   13.8721 C.ar    1  UNL1        0.0021
      5 C          64.6627   91.1557   12.4653 C.ar    1  UNL1        0.0251
      6 C          63.7396   90.2969   11.6529 C.ar    1  UNL1        0.0169
      7 C          65.2419   92.4053   11.8710 C.ar    1  UNL1        0.1107
      8 N          65.4077   93.7206   12.5727 N.ar    1  UNL1       -0.2383
      9 C          66.0253   94.6871   11.6059 C.ar    1  UNL1        0.0878
     10 C          66.4189   96.1282   11.7408 C.ar    1  UNL1        0.0196
     11 C          67.0284   96.8513   10.5765 C.ar    1  UNL1        0.0016
     12 C          67.2443   96.1333    9.2773 C.ar    1  UNL1        0.0006
     13 C          66.8506   94.6922    9.1425 C.ar    1  UNL1        0.0080
     14 C          66.2411   93.9691   10.3068 C.ar    1  UNL1        0.0485
     15 S          65.7570   92.5588   10.4706 S.2     1  UNL1       -0.0665
     16 O          62.2092   89.9897    9.5627 O.2     1  UNL1       -0.2745
     17 C          61.7616   88.6596   10.0925 C.2     1  UNL1        0.2291
     18 N          62.2372   88.1885   11.4348 N.am    1  UNL1       -0.2543
     19 C          60.8385   87.8008    9.2800 C.3     1  UNL1        0.0771
     20 C          60.5667   86.5255    8.5386 C.3     1  UNL1        0.0096
     21 C          59.5112   87.5886    8.6141 C.3     1  UNL1        0.0096
     22 C          61.7896   86.8585   11.9646 C.3     1  UNL1        0.1263
     23 C          62.6656   85.6520   11.7995 C.ar    1  UNL1        0.0172
     24 C          62.8027   85.0031   10.4542 C.ar    1  UNL1        0.0005
     25 C          63.6787   83.7967   10.2891 C.ar    1  UNL1        0.0204
     26 C          64.4176   83.2393   11.4695 C.ar    1  UNL1        0.0989
     27 N          64.2805   83.8881   12.8149 N.ar    1  UNL1       -0.2426
     28 C          63.4045   85.0945   12.9799 C.ar    1  UNL1        0.0962
@<TRIPOS>BOND
     1    16    17    2
     2    17    19    1
     3    19    20    1
     4    20    21    1
     5    17    18   am
     6    18    22    1
     7    22    23    1
     8    23    24   ar
     9    24    25   ar
    10    25    26   ar
    11    26    27   ar
    12    27    28   ar
    13    18     1    1
    14     1     2   ar
    15     2     3   ar
    16     3     4   ar
    17     4     5   ar
    18     5     7    1
    19     7     8   ar
    20     8     9   ar
    21     9    10   ar
    22    10    11   ar
    23    11    12   ar
    24    12    13   ar
    25    13    14   ar
    26    14    15   ar
    27     5     6   ar
    28    21    19    1
    29    28    23   ar
    30     6     1   ar
    31    15     7   ar
    32    14     9   ar
@<TRIPOS>MOLECULE
*****
 28 32 0 0 0
SMALL
GASTEIGER

@<TRIPOS>ATOM
      1 C          62.2256   87.1996   11.1947 C.ar    1  UNL1        0.0542
      2 C          60.8022   87.6206   10.9789 C.ar    1  UNL1        0.0149
      3 C          60.3552   88.9921   11.3900 C.ar    1  UNL1        0.0013
      4 C          61.3317   89.9427   12.0170 C.ar    1  UNL1        0.0021
      5 C          62.7550   89.5216   12.2328 C.ar    1  UNL1        0.0251
      6 C          63.2020   88.1501   11.8217 C.ar    1  UNL1        0.0169
      7 C          63.7315   90.4721   12.8598 C.ar    1  UNL1        0.1107
      8 N          64.4205   91.6115   12.1690 N.ar    1  UNL1       -0.2383
      9 C          65.3052   92.2937   13.1699 C.ar    1  UNL1        0.0878
     10 C          66.2219   93.4757   13.0581 C.ar    1  UNL1        0.0196
     11 C          66.9964   93.9400   14.2558 C.ar    1  UNL1        0.0016
     12 C          66.8542   93.2223   15.5653 C.ar    1  UNL1        0.0006
     13 C          65.9375   92.0403   15.6771 C.ar    1  UNL1        0.0080
     14 C          65.1630   91.5760   14.4794 C.ar    1  UNL1        0.0485
     15 S          64.1904   90.4502   14.2877 S.2     1  UNL1       -0.0665
     16 O          61.9629   84.9011   13.1046 O.2     1  UNL1       -0.2745
     17 C          62.5413   84.6787   11.7385 C.2     1  UNL1        0.2291
     18 N          62.6726   85.8280   10.7835 N.am    1  UNL1       -0.2543
     19 C          62.9882   83.3072   11.3274 C.3     1  UNL1        0.0771
     20 C          63.8308   82.4217   10.4580 C.3     1  UNL1        0.0096
     21 C          62.9199   81.8170   11.4849 C.3     1  UNL1        0.0096
     22 C          63.2509   85.6057    9.4175 C.3     1  UNL1        0.1263
     23 C          62.3455   85.3093    8.2589 C.ar    1  UNL1        0.0172
     24 C          62.8686   84.5562    7.0718 C.ar    1  UNL1        0.0005
     25 C          61.9632   84.2598    5.9132 C.ar    1  UNL1        0.0204
     26 C          60.5347   84.7165    5.9417 C.ar    1  UNL1        0.0989
     27 N          60.0116   85.4696    7.1288 N.ar    1  UNL1       -0.2426
     28 C          60.9170   85.7660    8.2873 C.ar    1  UNL1        0.0962
@<TRIPOS>BOND
     1    16    17    2
     2    17    19    1
     3    19    20    1
     4    20    21    1
     5    17    18   am
     6    18    22    1
     7    22    23    1
     8    23    24   ar
     9    24    25   ar
    10    25    26   ar
    11    26    27   ar
    12    27    28   ar
    13    18     1    1
    14     1     2   ar
    15     2     3   ar
    16     3     4   ar
    17     4     5   ar
    18     5     7    1
    19     7     8   ar
    20     8     9   ar
    21     9    10   ar
    22    10    11   ar
    23    11    12   ar
    24    12    13   ar
    25    13    14   ar
    26    14    15   ar
    27     5     6   ar
    28    21    19    1
    29    28    23   ar
    30     6     1   ar
    31    15     7   ar
    32    14     9   ar
@<TRIPOS>MOLECULE
*****
 28 32 0 0 0
SMALL
GASTEIGER

@<TRIPOS>ATOM
      1 C          62.9744   89.3846   11.7813 C.ar    1  UNL1        0.0542
      2 C          61.6431   89.8434   11.2645 C.ar    1  UNL1        0.0149
      3 C          60.5492   88.8465   11.0209 C.ar    1  UNL1        0.0013
      4 C          60.7865   87.3908   11.2940 C.ar    1  UNL1        0.0021
      5 C          62.1177   86.9320   11.8108 C.ar    1  UNL1        0.0251
      6 C          63.2117   87.9289   12.0544 C.ar    1  UNL1        0.0169
      7 C          62.3550   85.4763   12.0840 C.ar    1  UNL1        0.1107
      8 N          62.4301   84.3870   11.0555 N.ar    1  UNL1       -0.2383
      9 C          62.6804   83.0918   11.7695 C.ar    1  UNL1        0.0878
     10 C          62.8461   81.6868   11.2712 C.ar    1  UNL1        0.0196
     11 C          63.0914   80.5705   12.2427 C.ar    1  UNL1        0.0016
     12 C          63.1710   80.8593   13.7125 C.ar    1  UNL1        0.0006
     13 C          63.0053   82.2644   14.2108 C.ar    1  UNL1        0.0080
     14 C          62.7600   83.3806   13.2393 C.ar    1  UNL1        0.0485
     15 S          62.5589   84.8543   13.4336 S.2     1  UNL1       -0.0665
     16 O          63.2344   91.7898   10.0072 O.2     1  UNL1       -0.2745
     17 C          64.1985   91.5841   11.1379 C.2     1  UNL1        0.2291
     18 N          64.0685   90.3815   12.0249 N.am    1  UNL1       -0.2543
     19 C          65.2925   92.5810   11.3815 C.3     1  UNL1        0.0771
     20 C          66.7488   92.9400   11.3709 C.3     1  UNL1        0.0096
     21 C          65.7310   93.9487   11.8140 C.3     1  UNL1        0.0096
     22 C          65.0325   90.1758   13.1555 C.3     1  UNL1        0.1263
     23 C          64.8522   90.9274   14.4411 C.ar    1  UNL1        0.0172
     24 C          65.9243   91.8600   14.9213 C.ar    1  UNL1        0.0005
     25 C          65.7439   92.6116   16.2068 C.ar    1  UNL1        0.0204
     26 C          64.4915   92.4305   17.0121 C.ar    1  UNL1        0.0989
     27 N          63.4194   91.4978   16.5319 N.ar    1  UNL1       -0.2426
     28 C          63.5997   90.7462   15.2464 C.ar    1  UNL1        0.0962
@<TRIPOS>BOND
     1    16    17    2
     2    17    19    1
     3    19    20    1
     4    20    21    1
     5    17    18   am
     6    18    22    1
     7    22    23    1
     8    23    24   ar
     9    24    25   ar
    10    25    26   ar
    11    26    27   ar
    12    27    28   ar
    13    18     1    1
    14     1     2   ar
    15     2     3   ar
    16     3     4   ar
    17     4     5   ar
    18     5     7    1
    19     7     8   ar
    20     8     9   ar
    21     9    10   ar
    22    10    11   ar
    23    11    12   ar
    24    12    13   ar
    25    13    14   ar
    26    14    15   ar
    27     5     6   ar
    28    21    19    1
    29    28    23   ar
    30     6     1   ar
    31    15     7   ar
    32    14     9   ar
