@<TRIPOS>MOLECULE
*****
 29 32 0 0 0
SMALL
GASTEIGER

@<TRIPOS>ATOM
      1 C          61.9701   86.7568    9.3488 C.3     1  UNL1        0.0356
      2 C          62.3190   87.8222   10.3455 C.ar    1  UNL1        0.0290
      3 C          62.2099   89.2692    9.9657 C.ar    1  UNL1        0.1003
      4 N          62.5588   90.3346   10.9624 N.ar    1  UNL1       -0.2123
      5 C          63.0167   89.9529   12.3389 C.ar    1  UNL1        0.2219
      6 N          63.1258   88.5058   12.7186 N.ar    1  UNL1       -0.1989
      7 C          62.7769   87.4405   11.7219 C.ar    1  UNL1        0.1320
      8 N          62.8860   85.9934   12.1017 N.pl3   1  UNL1       -0.2934
      9 C          63.5001   85.6067   13.4144 C.3     1  UNL1        0.0926
     10 C          63.6091   84.1597   13.7941 C.3     1  UNL1        0.0302
     11 C          63.1040   83.0994   12.8610 C.3     1  UNL1        0.0737
     12 C          62.6454   81.9342   12.0352 C.3     1  UNL1        0.0300
     13 C          62.9487   80.6780   12.7971 C.3     1  UNL1        0.0899
     14 N          63.5949   81.0670   14.0937 N.am    1  UNL1       -0.3043
     15 C          63.6909   82.5634   14.1333 C.2     1  UNL1        0.2217
     16 O          64.2717   83.3805   15.2490 O.2     1  UNL1       -0.2751
     17 C          62.4899   83.4860   11.5483 C.3     1  UNL1        0.0302
     18 C          62.3809   84.9331   11.1686 C.3     1  UNL1        0.0926
     19 H          63.9021   80.4487   14.7956 H       1  UNL1        0.1494
     20 N          63.3656   91.0181   13.3355 N.pl3   1  UNL1       -0.2800
     21 H          62.6765   91.3644   13.9475 H       1  UNL1        0.1552
     22 C          64.7644   91.5559   13.3999 C.ar    1  UNL1        0.0908
     23 C          65.4595   92.3359   12.3236 C.ar    1  UNL1        0.1365
     24 N          66.8384   92.6702   12.8103 N.ar    1  UNL1       -0.1619
     25 N          66.9956   92.0968   14.1874 N.ar    1  UNL1       -0.1900
     26 C          65.7138   91.4081   14.5518 C.ar    1  UNL1        0.1168
     27 C          68.2196   92.1947   15.0489 C.3     1  UNL1        0.4298
     28 F          69.5609   92.4348   14.4218 F       1  UNL1       -0.1711
     29 F          68.1022   92.0527   16.5375 F       1  UNL1       -0.1711
@<TRIPOS>BOND
     1     1     2    1
     2     2     3   ar
     3     3     4   ar
     4     4     5   ar
     5     5    20    1
     6    20    22    1
     7    22    23   ar
     8    23    24   ar
     9    24    25   ar
    10    25    27    1
    11    27    28    1
    12    27    29    1
    13    25    26   ar
    14     5     6   ar
    15     6     7   ar
    16     7     8    1
    17     8     9    1
    18     9    10    1
    19    10    11    1
    20    11    12    1
    21    12    13    1
    22    13    14    1
    23    14    15   am
    24    15    16    2
    25    11    17    1
    26    17    18    1
    27     7     2   ar
    28    18     8    1
    29    26    22   ar
    30    15    11    1
    31    20    21    1
    32    14    19    1
@<TRIPOS>MOLECULE
*****
 29 32 0 0 0
SMALL
GASTEIGER

@<TRIPOS>ATOM
      1 C          61.2431   86.7254    9.4438 C.3     1  UNL1        0.0356
      2 C          61.8099   87.8389   10.2739 C.ar    1  UNL1        0.0290
      3 C          61.6229   89.2640    9.8452 C.ar    1  UNL1        0.1003
      4 N          62.1897   90.3775   10.6753 N.ar    1  UNL1       -0.2123
      5 C          62.9435   90.0657   11.9341 C.ar    1  UNL1        0.2219
      6 N          63.1305   88.6404   12.3628 N.ar    1  UNL1       -0.1989
      7 C          62.5637   87.5270   11.5327 C.ar    1  UNL1        0.1320
      8 N          62.7507   86.1018   11.9614 N.pl3   1  UNL1       -0.2934
      9 C          63.3660   85.7941   13.2943 C.3     1  UNL1        0.0926
     10 C          63.5530   84.3689   13.7229 C.3     1  UNL1        0.0302
     11 C          63.1245   83.2513   12.8187 C.3     1  UNL1        0.0737
     12 C          62.7469   82.0354   12.0257 C.3     1  UNL1        0.0300
     13 C          63.1109   80.8243   12.8326 C.3     1  UNL1        0.0899
     14 N          63.7136   81.2918   14.1242 N.am    1  UNL1       -0.3043
     15 C          63.7220   82.7918   14.1156 C.2     1  UNL1        0.2217
     16 O          64.2374   83.6769   15.2115 O.2     1  UNL1       -0.2751
     17 C          62.5092   83.5591   11.4858 C.3     1  UNL1        0.0302
     18 C          62.3222   84.9843   11.0572 C.3     1  UNL1        0.0926
     19 H          64.0454   80.7154   14.8501 H       1  UNL1        0.1494
     20 N          63.5103   91.1791   12.7642 N.pl3   1  UNL1       -0.2800
     21 H          63.0272   91.4929   13.5626 H       1  UNL1        0.1552
     22 C          64.8130   91.8144   12.3779 C.ar    1  UNL1        0.0908
     23 C          65.9638   92.0958   13.2978 C.ar    1  UNL1        0.1365
     24 N          67.0557   92.7352   12.4923 N.ar    1  UNL1       -0.1619
     25 N          66.5797   92.8490   11.0744 N.ar    1  UNL1       -0.1900
     26 C          65.1936   92.2799   11.0037 C.ar    1  UNL1        0.1168
     27 C          67.3538   93.4299    9.9284 C.3     1  UNL1        0.4298
     28 F          68.0117   92.5227    8.9312 F       1  UNL1       -0.1711
     29 F          67.4700   94.9179    9.7795 F       1  UNL1       -0.1711
@<TRIPOS>BOND
     1     1     2    1
     2     2     3   ar
     3     3     4   ar
     4     4     5   ar
     5     5    20    1
     6    20    22    1
     7    22    23   ar
     8    23    24   ar
     9    24    25   ar
    10    25    27    1
    11    27    28    1
    12    27    29    1
    13    25    26   ar
    14     5     6   ar
    15     6     7   ar
    16     7     8    1
    17     8     9    1
    18     9    10    1
    19    10    11    1
    20    11    12    1
    21    12    13    1
    22    13    14    1
    23    14    15   am
    24    15    16    2
    25    11    17    1
    26    17    18    1
    27     7     2   ar
    28    18     8    1
    29    26    22   ar
    30    15    11    1
    31    20    21    1
    32    14    19    1
@<TRIPOS>MOLECULE
*****
 29 32 0 0 0
SMALL
GASTEIGER

@<TRIPOS>ATOM
      1 C          60.2274   90.4759   11.5634 C.3     1  UNL1        0.0356
      2 C          60.7516   89.1746   11.0322 C.ar    1  UNL1        0.0290
      3 C          59.8047   88.1630   10.4578 C.ar    1  UNL1        0.1003
      4 N          60.3289   86.8618    9.9266 N.ar    1  UNL1       -0.2123
      5 C          61.8001   86.5723    9.9699 C.ar    1  UNL1        0.2219
      6 N          62.7470   87.5839   10.5443 N.ar    1  UNL1       -0.1989
      7 C          62.2228   88.8851   11.0755 C.ar    1  UNL1        0.1320
      8 N          63.1697   89.8968   11.6499 N.pl3   1  UNL1       -0.2934
      9 C          63.6701   91.0247   10.7971 C.3     1  UNL1        0.0926
     10 C          64.6170   92.0363   11.3715 C.3     1  UNL1        0.0302
     11 C          65.0635   91.9200   12.7988 C.3     1  UNL1        0.0737
     12 C          65.5949   91.9334   14.2015 C.3     1  UNL1        0.0300
     13 C          66.5051   93.1176   14.3410 C.3     1  UNL1        0.0899
     14 N          66.5362   93.8360   13.0245 N.am    1  UNL1       -0.3043
     15 C          65.6453   93.0958   12.0714 C.2     1  UNL1        0.2217
     16 O          65.3822   93.4664   10.6420 O.2     1  UNL1       -0.2751
     17 C          64.5631   90.7920   13.6516 C.3     1  UNL1        0.0302
     18 C          63.6162   89.7804   13.0772 C.3     1  UNL1        0.0926
     19 H          67.0510   94.6503   12.8217 H       1  UNL1        0.1494
     20 N          62.3243   85.2711    9.4388 N.pl3   1  UNL1       -0.2800
     21 H          62.1861   85.0339    8.4933 H       1  UNL1        0.1552
     22 C          63.0591   84.3314   10.3481 C.ar    1  UNL1        0.0908
     23 C          64.1574   83.3926    9.9448 C.ar    1  UNL1        0.1365
     24 N          64.6018   82.6464   11.1678 N.ar    1  UNL1       -0.1619
     25 N          63.7782   83.1240   12.3270 N.ar    1  UNL1       -0.1900
     26 C          62.8248   84.1653   11.8203 C.ar    1  UNL1        0.1168
     27 C          63.8885   82.6444   13.7440 C.3     1  UNL1        0.4298
     28 F          64.0233   83.6347   14.8626 F       1  UNL1       -0.1711
     29 F          63.8641   81.1746   14.0423 F       1  UNL1       -0.1711
@<TRIPOS>BOND
     1     1     2    1
     2     2     3   ar
     3     3     4   ar
     4     4     5   ar
     5     5    20    1
     6    20    22    1
     7    22    23   ar
     8    23    24   ar
     9    24    25   ar
    10    25    27    1
    11    27    28    1
    12    27    29    1
    13    25    26   ar
    14     5     6   ar
    15     6     7   ar
    16     7     8    1
    17     8     9    1
    18     9    10    1
    19    10    11    1
    20    11    12    1
    21    12    13    1
    22    13    14    1
    23    14    15   am
    24    15    16    2
    25    11    17    1
    26    17    18    1
    27     7     2   ar
    28    18     8    1
    29    26    22   ar
    30    15    11    1
    31    20    21    1
    32    14    19    1
@<TRIPOS>MOLECULE
*****
 29 32 0 0 0
SMALL
GASTEIGER

@<TRIPOS>ATOM
      1 C          63.6950   91.6058   10.4121 C.3     1  UNL1        0.0356
      2 C          63.6690   91.1171   11.8301 C.ar    1  UNL1        0.0290
      3 C          64.4443   91.8444   12.8884 C.ar    1  UNL1        0.1003
      4 N          64.4183   91.3557   14.3064 N.ar    1  UNL1       -0.2123
      5 C          63.6169   90.1398   14.6660 C.ar    1  UNL1        0.2219
      6 N          62.8415   89.4126   13.6077 N.ar    1  UNL1       -0.1989
      7 C          62.8676   89.9012   12.1898 C.ar    1  UNL1        0.1320
      8 N          62.0922   89.1740   11.1315 N.pl3   1  UNL1       -0.2934
      9 C          62.4028   87.7384   10.8274 C.3     1  UNL1        0.0926
     10 C          61.6275   87.0112    9.7691 C.3     1  UNL1        0.0302
     11 C          60.5415   87.7197    9.0149 C.3     1  UNL1        0.0737
     12 C          59.4335   88.2937    8.1826 C.3     1  UNL1        0.0300
     13 C          58.9452   87.2195    7.2563 C.3     1  UNL1        0.0899
     14 N          59.7515   85.9816    7.5162 N.am    1  UNL1       -0.3043
     15 C          60.7381   86.2907    8.6030 C.2     1  UNL1        0.2217
     16 O          61.7445   85.3382    9.1772 O.2     1  UNL1       -0.2751
     17 C          60.2309   89.1553    9.3190 C.3     1  UNL1        0.0302
     18 C          61.0063   89.8824   10.3773 C.3     1  UNL1        0.0926
     19 H          59.6509   85.1179    7.0546 H       1  UNL1        0.1494
     20 N          63.5908   89.6512   16.0839 N.pl3   1  UNL1       -0.2800
     21 H          63.6835   90.2906   16.8267 H       1  UNL1        0.1552
     22 C          63.4235   88.1883   16.3701 C.ar    1  UNL1        0.0908
     23 C          62.8131   87.5957   17.6056 C.ar    1  UNL1        0.1365
     24 N          62.8495   86.1023   17.4701 N.ar    1  UNL1       -0.1619
     25 N          63.4824   85.7718   16.1509 N.ar    1  UNL1       -0.1900
     26 C          63.8371   87.0610   15.4711 C.ar    1  UNL1        0.1168
     27 C          63.7190   84.3941   15.6070 C.3     1  UNL1        0.4298
     28 F          62.6832   83.3255   15.7949 F       1  UNL1       -0.1711
     29 F          64.9914   84.0850   14.8753 F       1  UNL1       -0.1711
@<TRIPOS>BOND
     1     1     2    1
     2     2     3   ar
     3     3     4   ar
     4     4     5   ar
     5     5    20    1
     6    20    22    1
     7    22    23   ar
     8    23    24   ar
     9    24    25   ar
    10    25    27    1
    11    27    28    1
    12    27    29    1
    13    25    26   ar
    14     5     6   ar
    15     6     7   ar
    16     7     8    1
    17     8     9    1
    18     9    10    1
    19    10    11    1
    20    11    12    1
    21    12    13    1
    22    13    14    1
    23    14    15   am
    24    15    16    2
    25    11    17    1
    26    17    18    1
    27     7     2   ar
    28    18     8    1
    29    26    22   ar
    30    15    11    1
    31    20    21    1
    32    14    19    1
@<TRIPOS>MOLECULE
*****
 29 32 0 0 0
SMALL
GASTEIGER

@<TRIPOS>ATOM
      1 C          63.6065   83.4486    9.8612 C.3     1  UNL1        0.0356
      2 C          63.6847   83.7471   11.3291 C.ar    1  UNL1        0.0290
      3 C          64.4335   82.8233   12.2434 C.ar    1  UNL1        0.1003
      4 N          64.5117   83.1218   13.7114 N.ar    1  UNL1       -0.2123
      5 C          63.8411   84.3440   14.2650 C.ar    1  UNL1        0.2219
      6 N          63.0923   85.2678   13.3506 N.ar    1  UNL1       -0.1989
      7 C          63.0141   84.9693   11.8827 C.ar    1  UNL1        0.1320
      8 N          62.2653   85.8931   10.9684 N.pl3   1  UNL1       -0.2934
      9 C          62.4008   87.3784   11.1276 C.3     1  UNL1        0.0926
     10 C          61.6520   88.3021   10.2133 C.3     1  UNL1        0.0302
     11 C          60.7677   87.7404    9.1397 C.3     1  UNL1        0.0737
     12 C          59.8512   87.3273    8.0264 C.3     1  UNL1        0.0300
     13 C          59.3210   88.5710    7.3767 C.3     1  UNL1        0.0899
     14 N          59.9098   89.7529    8.0885 N.am    1  UNL1       -0.3043
     15 C          60.8039   89.2396    9.1780 C.2     1  UNL1        0.2217
     16 O          61.5952   90.0781   10.1375 O.2     1  UNL1       -0.2751
     17 C          60.6322   86.2551    8.9804 C.3     1  UNL1        0.0302
     18 C          61.3810   85.3314    9.8948 C.3     1  UNL1        0.0926
     19 H          59.7393   90.6993    7.8776 H       1  UNL1        0.1494
     20 N          63.9193   84.6425   15.7329 N.pl3   1  UNL1       -0.2800
     21 H          64.1741   83.9334   16.3665 H       1  UNL1        0.1552
     22 C          63.6092   86.0214   16.2354 C.ar    1  UNL1        0.0908
     23 C          62.9762   86.3580   17.5530 C.ar    1  UNL1        0.1365
     24 N          62.8535   87.8504   17.6405 N.ar    1  UNL1       -0.1619
     25 N          63.4108   88.4362   16.3771 N.ar    1  UNL1       -0.1900
     26 C          63.8779   87.3058   15.5087 C.ar    1  UNL1        0.1168
     27 C          63.4876   89.8960   16.0410 C.3     1  UNL1        0.4298
     28 F          63.5574   90.3330   14.6077 F       1  UNL1       -0.1711
     29 F          63.4946   90.9188   17.1381 F       1  UNL1       -0.1711
@<TRIPOS>BOND
     1     1     2    1
     2     2     3   ar
     3     3     4   ar
     4     4     5   ar
     5     5    20    1
     6    20    22    1
     7    22    23   ar
     8    23    24   ar
     9    24    25   ar
    10    25    27    1
    11    27    28    1
    12    27    29    1
    13    25    26   ar
    14     5     6   ar
    15     6     7   ar
    16     7     8    1
    17     8     9    1
    18     9    10    1
    19    10    11    1
    20    11    12    1
    21    12    13    1
    22    13    14    1
    23    14    15   am
    24    15    16    2
    25    11    17    1
    26    17    18    1
    27     7     2   ar
    28    18     8    1
    29    26    22   ar
    30    15    11    1
    31    20    21    1
    32    14    19    1
@<TRIPOS>MOLECULE
*****
 29 32 0 0 0
SMALL
GASTEIGER

@<TRIPOS>ATOM
      1 C          60.1354   90.4885   11.1848 C.3     1  UNL1        0.0356
      2 C          60.6768   89.1727   10.7095 C.ar    1  UNL1        0.0290
      3 C          59.7493   88.1439   10.1341 C.ar    1  UNL1        0.1003
      4 N          60.2906   86.8281    9.6589 N.ar    1  UNL1       -0.2123
      5 C          61.7595   86.5413    9.7590 C.ar    1  UNL1        0.2219
      6 N          62.6871   87.5702   10.3345 N.ar    1  UNL1       -0.1989
      7 C          62.1457   88.8859   10.8097 C.ar    1  UNL1        0.1320
      8 N          63.0733   89.9148   11.3852 N.pl3   1  UNL1       -0.2934
      9 C          63.4962   89.8237   12.8214 C.3     1  UNL1        0.0926
     10 C          64.4237   90.8526   13.3968 C.3     1  UNL1        0.0302
     11 C          64.9282   91.9725   12.5359 C.3     1  UNL1        0.0737
     12 C          65.5116   93.1430   11.8012 C.3     1  UNL1        0.0300
     13 C          66.3792   93.9055   12.7583 C.3     1  UNL1        0.0899
     14 N          66.3320   93.2063   14.0845 N.am    1  UNL1       -0.3043
     15 C          65.4353   92.0117   13.9471 C.2     1  UNL1        0.2217
     16 O          65.1039   91.0288   15.0306 O.2     1  UNL1       -0.2751
     17 C          64.5053   92.0636   11.0997 C.3     1  UNL1        0.0302
     18 C          63.5778   91.0348   10.5243 C.3     1  UNL1        0.0926
     19 H          66.8063   93.4829   14.9017 H       1  UNL1        0.1494
     20 N          62.3009   85.2256    9.2838 N.pl3   1  UNL1       -0.2800
     21 H          62.1695   84.9482    8.3484 H       1  UNL1        0.1552
     22 C          63.0425   84.3325   10.2338 C.ar    1  UNL1        0.0908
     23 C          64.1429   83.3798    9.8714 C.ar    1  UNL1        0.1365
     24 N          64.5943   82.6938   11.1266 N.ar    1  UNL1       -0.1619
     25 N          63.7729   83.2225   12.2649 N.ar    1  UNL1       -0.1900
     26 C          62.8138   84.2353   11.7131 C.ar    1  UNL1        0.1168
     27 C          63.8900   82.8108   13.7025 C.3     1  UNL1        0.4298
     28 F          63.4460   81.4431   14.1295 F       1  UNL1       -0.1711
     29 F          64.4510   83.7668   14.7131 F       1  UNL1       -0.1711
@<TRIPOS>BOND
     1     1     2    1
     2     2     3   ar
     3     3     4   ar
     4     4     5   ar
     5     5    20    1
     6    20    22    1
     7    22    23   ar
     8    23    24   ar
     9    24    25   ar
    10    25    27    1
    11    27    28    1
    12    27    29    1
    13    25    26   ar
    14     5     6   ar
    15     6     7   ar
    16     7     8    1
    17     8     9    1
    18     9    10    1
    19    10    11    1
    20    11    12    1
    21    12    13    1
    22    13    14    1
    23    14    15   am
    24    15    16    2
    25    11    17    1
    26    17    18    1
    27     7     2   ar
    28    18     8    1
    29    26    22   ar
    30    15    11    1
    31    20    21    1
    32    14    19    1
@<TRIPOS>MOLECULE
*****
 29 32 0 0 0
SMALL
GASTEIGER

@<TRIPOS>ATOM
      1 C          61.4234   86.7033   10.2383 C.3     1  UNL1        0.0356
      2 C          62.2150   87.5176   11.2183 C.ar    1  UNL1        0.0290
      3 C          62.2993   89.0069   11.0607 C.ar    1  UNL1        0.1003
      4 N          63.0910   89.8212   12.0407 N.ar    1  UNL1       -0.2123
      5 C          63.7983   89.1462   13.1782 C.ar    1  UNL1        0.2219
      6 N          63.7140   87.6568   13.3357 N.ar    1  UNL1       -0.1989
      7 C          62.9224   86.8426   12.3558 C.ar    1  UNL1        0.1320
      8 N          62.8381   85.3532   12.5133 N.pl3   1  UNL1       -0.2934
      9 C          63.1647   84.4569   11.3558 C.3     1  UNL1        0.0926
     10 C          63.0803   82.9676   11.5134 C.3     1  UNL1        0.0302
     11 C          62.6695   82.3746   12.8285 C.3     1  UNL1        0.0737
     12 C          62.2754   81.6409   14.0761 C.3     1  UNL1        0.0300
     13 C          62.3268   80.1703   13.7848 C.3     1  UNL1        0.0899
     14 N          62.7526   79.9952   12.3571 N.am    1  UNL1       -0.3043
     15 C          62.9644   81.3575   11.7662 C.2     1  UNL1        0.2217
     16 O          63.3953   81.6512   10.3598 O.2     1  UNL1       -0.2751
     17 C          62.3429   83.2709   13.9861 C.3     1  UNL1        0.0302
     18 C          62.4272   84.7602   13.8285 C.3     1  UNL1        0.0926
     19 H          62.8721   79.1368   11.8901 H       1  UNL1        0.1494
     20 N          64.5899   89.9604   14.1581 N.pl3   1  UNL1       -0.2800
     21 H          64.5944   89.7153   15.1116 H       1  UNL1        0.1552
     22 C          65.3748   91.1480   13.6854 C.ar    1  UNL1        0.0908
     23 C          66.6874   91.6153   14.2409 C.ar    1  UNL1        0.1365
     24 N          67.1087   92.8330   13.4729 N.ar    1  UNL1       -0.1619
     25 N          66.0565   93.1183   12.4427 N.ar    1  UNL1       -0.1900
     26 C          64.9849   92.0769   12.5740 C.ar    1  UNL1        0.1168
     27 C          66.0729   94.2467   11.4546 C.3     1  UNL1        0.4298
     28 F          66.0614   95.6668   11.9377 F       1  UNL1       -0.1711
     29 F          66.1008   93.9551    9.9835 F       1  UNL1       -0.1711
@<TRIPOS>BOND
     1     1     2    1
     2     2     3   ar
     3     3     4   ar
     4     4     5   ar
     5     5    20    1
     6    20    22    1
     7    22    23   ar
     8    23    24   ar
     9    24    25   ar
    10    25    27    1
    11    27    28    1
    12    27    29    1
    13    25    26   ar
    14     5     6   ar
    15     6     7   ar
    16     7     8    1
    17     8     9    1
    18     9    10    1
    19    10    11    1
    20    11    12    1
    21    12    13    1
    22    13    14    1
    23    14    15   am
    24    15    16    2
    25    11    17    1
    26    17    18    1
    27     7     2   ar
    28    18     8    1
    29    26    22   ar
    30    15    11    1
    31    20    21    1
    32    14    19    1
@<TRIPOS>MOLECULE
*****
 29 32 0 0 0
SMALL
GASTEIGER

@<TRIPOS>ATOM
      1 C          61.9263   86.6151    9.1836 C.3     1  UNL1        0.0356
      2 C          62.2649   87.6370   10.2282 C.ar    1  UNL1        0.0290
      3 C          62.2182   89.0979    9.8912 C.ar    1  UNL1        0.1003
      4 N          62.5567   90.1198   10.9357 N.ar    1  UNL1       -0.2123
      5 C          62.9420   89.6808   12.3173 C.ar    1  UNL1        0.2219
      6 N          62.9888   88.2198   12.6543 N.ar    1  UNL1       -0.1989
      7 C          62.6502   87.1980   11.6098 C.ar    1  UNL1        0.1320
      8 N          62.6969   85.7370   11.9468 N.pl3   1  UNL1       -0.2934
      9 C          63.0455   84.7338   10.8876 C.3     1  UNL1        0.0926
     10 C          63.0922   83.2729   11.2246 C.3     1  UNL1        0.0302
     11 C          62.7903   82.8153   12.6209 C.3     1  UNL1        0.0737
     12 C          62.5140   82.2114   13.9659 C.3     1  UNL1        0.0300
     13 C          62.6744   80.7246   13.8483 C.3     1  UNL1        0.0899
     14 N          63.0500   80.4096   12.4306 N.am    1  UNL1       -0.3043
     15 C          63.1216   81.7016   11.6720 C.2     1  UNL1        0.2217
     16 O          63.4643   81.8535   10.2197 O.2     1  UNL1       -0.2751
     17 C          62.4417   83.8185   13.6801 C.3     1  UNL1        0.0302
     18 C          62.3950   85.2794   13.3430 C.3     1  UNL1        0.0926
     19 H          63.2196   79.5123   12.0627 H       1  UNL1        0.1494
     20 N          63.2806   90.7026   13.3619 N.pl3   1  UNL1       -0.2800
     21 H          62.6009   90.9797   14.0180 H       1  UNL1        0.1552
     22 C          64.6548   91.3023   13.4068 C.ar    1  UNL1        0.0908
     23 C          65.3159   92.0753   12.3044 C.ar    1  UNL1        0.1365
     24 N          66.6789   92.4851   12.7783 N.ar    1  UNL1       -0.1619
     25 N          66.8601   91.9652   14.1737 N.ar    1  UNL1       -0.1900
     26 C          65.6091   91.2343   14.5621 C.ar    1  UNL1        0.1168
     27 C          68.0783   92.1448   15.0302 C.3     1  UNL1        0.4298
     28 F          67.9652   92.0557   16.5233 F       1  UNL1       -0.1711
     29 F          69.4097   92.4135   14.3936 F       1  UNL1       -0.1711
@<TRIPOS>BOND
     1     1     2    1
     2     2     3   ar
     3     3     4   ar
     4     4     5   ar
     5     5    20    1
     6    20    22    1
     7    22    23   ar
     8    23    24   ar
     9    24    25   ar
    10    25    27    1
    11    27    28    1
    12    27    29    1
    13    25    26   ar
    14     5     6   ar
    15     6     7   ar
    16     7     8    1
    17     8     9    1
    18     9    10    1
    19    10    11    1
    20    11    12    1
    21    12    13    1
    22    13    14    1
    23    14    15   am
    24    15    16    2
    25    11    17    1
    26    17    18    1
    27     7     2   ar
    28    18     8    1
    29    26    22   ar
    30    15    11    1
    31    20    21    1
    32    14    19    1
@<TRIPOS>MOLECULE
*****
 29 32 0 0 0
SMALL
GASTEIGER

@<TRIPOS>ATOM
      1 C          61.5179   90.1553   10.3647 C.3     1  UNL1        0.0356
      2 C          61.7854   88.8143   10.9812 C.ar    1  UNL1        0.0290
      3 C          60.9436   87.6325   10.6008 C.ar    1  UNL1        0.1003
      4 N          61.2111   86.2914   11.2173 N.ar    1  UNL1       -0.2123
      5 C          62.3205   86.1322   12.2143 C.ar    1  UNL1        0.2219
      6 N          63.1624   87.3140   12.5947 N.ar    1  UNL1       -0.1989
      7 C          62.8948   88.6550   11.9782 C.ar    1  UNL1        0.1320
      8 N          63.7366   89.8369   12.3586 N.pl3   1  UNL1       -0.2934
      9 C          63.9750   90.9378   11.3682 C.3     1  UNL1        0.0926
     10 C          64.8168   92.1196   11.7487 C.3     1  UNL1        0.0302
     11 C          65.4202   92.2004   13.1195 C.3     1  UNL1        0.0737
     12 C          66.0856   92.4184   14.4461 C.3     1  UNL1        0.0300
     13 C          66.8211   93.7245   14.3867 C.3     1  UNL1        0.0899
     14 N          66.6103   94.3135   13.0233 N.am    1  UNL1       -0.3043
     15 C          65.7445   93.3716   12.2402 C.2     1  UNL1        0.2217
     16 O          65.2839   93.5666   10.8261 O.2     1  UNL1       -0.2751
     17 C          65.1819   91.0994   14.1100 C.3     1  UNL1        0.0302
     18 C          64.3401   89.9176   13.7295 C.3     1  UNL1        0.0926
     19 H          66.9759   95.1683   12.6994 H       1  UNL1        0.1494
     20 N          62.5881   84.7912   12.8308 N.pl3   1  UNL1       -0.2800
     21 H          62.4904   84.6680   13.8027 H       1  UNL1        0.1552
     22 C          63.0044   83.6380   11.9666 C.ar    1  UNL1        0.0908
     23 C          64.0288   83.6815   10.8717 C.ar    1  UNL1        0.1365
     24 N          64.1269   82.3092   10.2740 N.ar    1  UNL1       -0.1619
     25 N          63.1632   81.4176   10.9995 N.ar    1  UNL1       -0.1900
     26 C          62.4695   82.2389   12.0456 C.ar    1  UNL1        0.1168
     27 C          62.9335   79.9606   10.7268 C.3     1  UNL1        0.4298
     28 F          62.5759   79.0344   11.8512 F       1  UNL1       -0.1711
     29 F          63.0615   79.4299    9.3297 F       1  UNL1       -0.1711
@<TRIPOS>BOND
     1     1     2    1
     2     2     3   ar
     3     3     4   ar
     4     4     5   ar
     5     5    20    1
     6    20    22    1
     7    22    23   ar
     8    23    24   ar
     9    24    25   ar
    10    25    27    1
    11    27    28    1
    12    27    29    1
    13    25    26   ar
    14     5     6   ar
    15     6     7   ar
    16     7     8    1
    17     8     9    1
    18     9    10    1
    19    10    11    1
    20    11    12    1
    21    12    13    1
    22    13    14    1
    23    14    15   am
    24    15    16    2
    25    11    17    1
    26    17    18    1
    27     7     2   ar
    28    18     8    1
    29    26    22   ar
    30    15    11    1
    31    20    21    1
    32    14    19    1
