@<TRIPOS>MOLECULE
*****
 33 36 0 0 0
SMALL
GASTEIGER

@<TRIPOS>ATOM
      1 N          60.8403   89.0059   11.1191 N.am    1  UNL1       -0.2533
      2 C          62.1138   89.6723   11.5482 C.2     1  UNL1        0.3092
      3 O          63.0837   90.1704   10.5180 O.2     1  UNL1       -0.2521
      4 N          62.4174   89.8406   13.0074 N.am    1  UNL1       -0.2680
      5 H          60.2038   88.6789   11.7952 H       1  UNL1        0.1578
      6 H          61.7809   89.5137   13.6836 H       1  UNL1        0.1564
      7 C          63.6909   90.5070   13.4365 C.ar    1  UNL1        0.0516
      8 C          64.2690   91.6202   12.6138 C.ar    1  UNL1        0.0148
      9 C          65.5425   92.2866   13.0429 C.ar    1  UNL1        0.0028
     10 C          66.2380   91.8399   14.2946 C.ar    1  UNL1        0.0201
     11 C          65.6599   90.7268   15.1172 C.ar    1  UNL1        0.0028
     12 C          64.3864   90.0604   14.6882 C.ar    1  UNL1        0.0148
     13 C          67.5114   92.5064   14.7236 C.ar    1  UNL1        0.1114
     14 C          67.6798   93.4023   15.9148 C.ar    1  UNL1        0.0774
     15 S          69.1125   93.8435   15.9642 S.2     1  UNL1        0.0378
     16 N          69.8297   93.2203   14.8035 N.ar    1  UNL1       -0.1094
     17 N          68.8402   92.3939   14.0368 N.ar    1  UNL1       -0.1405
     18 N          60.9275   87.6669    8.8072 N.ar    1  UNL1       -0.2162
     19 N          60.4212   87.9162    7.4175 N.ar    1  UNL1       -0.1683
     20 C          59.7175   89.2409    7.4111 C.ar    1  UNL1        0.0810
     21 C          59.7889   89.8103    8.7970 C.ar    1  UNL1        0.0509
     22 C          60.5367   88.8375    9.6598 C.ar    1  UNL1        0.1380
     23 C          63.9799   82.8356   10.6351 C.3     1  UNL1        0.0310
     24 C          63.2168   84.0434   10.1781 C.ar    1  UNL1       -0.0218
     25 C          63.3630   84.5337    8.7681 C.ar    1  UNL1       -0.0027
     26 C          62.5999   85.7416    8.3112 C.ar    1  UNL1        0.0189
     27 C          61.6906   86.4591    9.2642 C.ar    1  UNL1        0.0842
     28 C          61.5444   85.9688   10.6742 C.ar    1  UNL1        0.0189
     29 C          62.3075   84.7609   11.1312 C.ar    1  UNL1       -0.0027
     30 C          59.0582   89.8833    6.2268 C.3     1  UNL1        0.0372
     31 C          57.7441   89.2854    6.6340 C.3     1  UNL1        0.0060
     32 C          60.3722   90.4812    5.8196 C.3     1  UNL1        0.0060
     33 C          58.3989   90.5258    5.0425 C.3     1  UNL1        0.0060
@<TRIPOS>BOND
     1    23    24    1
     2    24    25   ar
     3    25    26   ar
     4    26    27   ar
     5    27    18    1
     6    18    19   ar
     7    19    20   ar
     8    20    30    1
     9    30    31    1
    10    30    32    1
    11    30    33    1
    12    20    21   ar
    13    21    22   ar
    14    22     1    1
    15     1     2   am
    16     2     3    2
    17     2     4   am
    18     4     7    1
    19     7     8   ar
    20     8     9   ar
    21     9    10   ar
    22    10    13    1
    23    13    14   ar
    24    14    15   ar
    25    15    16   ar
    26    16    17   ar
    27    10    11   ar
    28    11    12   ar
    29    27    28   ar
    30    28    29   ar
    31    29    24   ar
    32    22    18   ar
    33    12     7   ar
    34    17    13   ar
    35     1     5    1
    36     4     6    1
@<TRIPOS>MOLECULE
*****
 33 36 0 0 0
SMALL
GASTEIGER

@<TRIPOS>ATOM
      1 N          60.1520   94.4873    0.6617 N.am    1  UNL1       -0.2533
      2 C          60.0666   93.3470    1.6324 C.2     1  UNL1        0.3092
      3 O          60.3511   91.9478    1.1728 O.2     1  UNL1       -0.2521
      4 N          59.6966   93.6058    3.0629 N.am    1  UNL1       -0.2680
      5 H          59.9652   95.4056    0.9634 H       1  UNL1        0.1578
      6 H          59.5098   94.5242    3.3646 H       1  UNL1        0.1564
      7 C          59.6113   92.4655    4.0336 C.ar    1  UNL1        0.0516
      8 C          58.2799   92.0462    4.5829 C.ar    1  UNL1        0.0148
      9 C          58.1945   90.9058    5.5536 C.ar    1  UNL1        0.0028
     10 C          59.4404   90.1847    5.9751 C.ar    1  UNL1        0.0201
     11 C          60.7718   90.6040    5.4258 C.ar    1  UNL1        0.0028
     12 C          60.8572   91.7444    4.4551 C.ar    1  UNL1        0.0148
     13 C          59.3551   89.0444    6.9458 C.ar    1  UNL1        0.1114
     14 C          60.0952   88.9360    8.2460 C.ar    1  UNL1        0.0774
     15 S          59.7121   87.6368    8.8905 S.2     1  UNL1        0.0378
     16 N          58.7353   86.9422    7.9886 N.ar    1  UNL1       -0.1094
     17 N          58.5146   87.8122    6.7867 N.ar    1  UNL1       -0.1405
     18 N          59.5839   94.2462   -1.9391 N.ar    1  UNL1       -0.2162
     19 N          60.3771   93.9352   -3.1736 N.ar    1  UNL1       -0.1683
     20 C          61.8054   93.7254   -2.7662 C.ar    1  UNL1        0.0810
     21 C          61.8949   93.9066   -1.2799 C.ar    1  UNL1        0.0509
     22 C          60.5219   94.2285   -0.7687 C.ar    1  UNL1        0.1380
     23 C          53.6930   95.3644   -1.7207 C.3     1  UNL1        0.0310
     24 C          55.1657   95.0849   -1.7753 C.ar    1  UNL1       -0.0218
     25 C          56.1483   96.2101   -1.6399 C.ar    1  UNL1       -0.0027
     26 C          57.6210   95.9306   -1.6944 C.ar    1  UNL1        0.0189
     27 C          58.1111   94.5258   -1.8845 C.ar    1  UNL1        0.0842
     28 C          57.1286   93.4005   -2.0199 C.ar    1  UNL1        0.0189
     29 C          55.6559   93.6801   -1.9654 C.ar    1  UNL1       -0.0027
     30 C          62.9442   93.3926   -3.6840 C.3     1  UNL1        0.0372
     31 C          63.7088   92.8196   -2.5277 C.3     1  UNL1        0.0060
     32 C          62.1797   93.9656   -4.8404 C.3     1  UNL1        0.0060
     33 C          64.0830   93.0599   -4.6018 C.3     1  UNL1        0.0060
@<TRIPOS>BOND
     1    23    24    1
     2    24    25   ar
     3    25    26   ar
     4    26    27   ar
     5    27    18    1
     6    18    19   ar
     7    19    20   ar
     8    20    30    1
     9    30    31    1
    10    30    32    1
    11    30    33    1
    12    20    21   ar
    13    21    22   ar
    14    22     1    1
    15     1     2   am
    16     2     3    2
    17     2     4   am
    18     4     7    1
    19     7     8   ar
    20     8     9   ar
    21     9    10   ar
    22    10    13    1
    23    13    14   ar
    24    14    15   ar
    25    15    16   ar
    26    16    17   ar
    27    10    11   ar
    28    11    12   ar
    29    27    28   ar
    30    28    29   ar
    31    29    24   ar
    32    22    18   ar
    33    12     7   ar
    34    17    13   ar
    35     1     5    1
    36     4     6    1
@<TRIPOS>MOLECULE
*****
 33 36 0 0 0
SMALL
GASTEIGER

@<TRIPOS>ATOM
      1 N          62.9115   86.4908   14.3890 N.am    1  UNL1       -0.2533
      2 C          63.4995   87.6492   13.6393 C.2     1  UNL1        0.3092
      3 O          63.9172   87.4822   12.2083 O.2     1  UNL1       -0.2521
      4 N          63.6698   88.9747   14.3204 N.am    1  UNL1       -0.2680
      5 H          62.6373   86.6004   15.3281 H       1  UNL1        0.1578
      6 H          63.3957   89.0844   15.2596 H       1  UNL1        0.1564
      7 C          64.2579   90.1332   13.5706 C.ar    1  UNL1        0.0516
      8 C          63.6641   90.5575   12.2601 C.ar    1  UNL1        0.0148
      9 C          64.2522   91.7159   11.5104 C.ar    1  UNL1        0.0028
     10 C          65.4340   92.4501   12.0710 C.ar    1  UNL1        0.0201
     11 C          66.0277   92.0258   13.3815 C.ar    1  UNL1        0.0028
     12 C          65.4396   90.8673   14.1313 C.ar    1  UNL1        0.0148
     13 C          66.0220   93.6086   11.3212 C.ar    1  UNL1        0.1114
     14 C          66.6068   93.5599    9.9408 C.ar    1  UNL1        0.0774
     15 S          67.0747   94.9403    9.5866 S.2     1  UNL1        0.0378
     16 N          66.7791   95.8422   10.7482 N.ar    1  UNL1       -0.1094
     17 N          66.1284   95.0191   11.8203 N.ar    1  UNL1       -0.1405
     18 N          62.1926   84.9466   12.3289 N.ar    1  UNL1       -0.2162
     19 N          62.2018   83.4718   12.0549 N.ar    1  UNL1       -0.1683
     20 C          62.7561   82.7791   13.2644 C.ar    1  UNL1        0.0810
     21 C          63.0894   83.8257   14.2860 C.ar    1  UNL1        0.0509
     22 C          62.7411   85.1652   13.7078 C.ar    1  UNL1        0.1380
     23 C          60.2947   89.2204    8.5696 C.3     1  UNL1        0.0310
     24 C          60.7692   88.1519    9.5094 C.ar    1  UNL1       -0.0218
     25 C          61.7502   87.1199    9.0379 C.ar    1  UNL1       -0.0027
     26 C          62.2247   86.0514    9.9777 C.ar    1  UNL1        0.0189
     27 C          61.7181   86.0150   11.3891 C.ar    1  UNL1        0.0842
     28 C          60.7371   87.0471   11.8606 C.ar    1  UNL1        0.0189
     29 C          60.2626   88.1155   10.9208 C.ar    1  UNL1       -0.0027
     30 C          62.9440   81.2995   13.4243 C.3     1  UNL1        0.0372
     31 C          61.6074   81.2025   14.0982 C.3     1  UNL1        0.0060
     32 C          64.2806   81.3965   12.7504 C.3     1  UNL1        0.0060
     33 C          63.1320   79.8200   13.5842 C.3     1  UNL1        0.0060
@<TRIPOS>BOND
     1    23    24    1
     2    24    25   ar
     3    25    26   ar
     4    26    27   ar
     5    27    18    1
     6    18    19   ar
     7    19    20   ar
     8    20    30    1
     9    30    31    1
    10    30    32    1
    11    30    33    1
    12    20    21   ar
    13    21    22   ar
    14    22     1    1
    15     1     2   am
    16     2     3    2
    17     2     4   am
    18     4     7    1
    19     7     8   ar
    20     8     9   ar
    21     9    10   ar
    22    10    13    1
    23    13    14   ar
    24    14    15   ar
    25    15    16   ar
    26    16    17   ar
    27    10    11   ar
    28    11    12   ar
    29    27    28   ar
    30    28    29   ar
    31    29    24   ar
    32    22    18   ar
    33    12     7   ar
    34    17    13   ar
    35     1     5    1
    36     4     6    1
@<TRIPOS>MOLECULE
*****
 33 36 0 0 0
SMALL
GASTEIGER

@<TRIPOS>ATOM
      1 N          62.8863   86.5253   14.3660 N.am    1  UNL1       -0.2533
      2 C          63.4859   87.6778   13.6164 C.2     1  UNL1        0.3092
      3 O          63.9239   87.5002   12.1928 O.2     1  UNL1       -0.2521
      4 N          63.6477   89.0081   14.2904 N.am    1  UNL1       -0.2680
      5 H          62.5989   86.6419   15.3003 H       1  UNL1        0.1578
      6 H          63.3603   89.1247   15.2248 H       1  UNL1        0.1564
      7 C          64.2473   90.1607   13.5407 C.ar    1  UNL1        0.0516
      8 C          65.4288   90.8907   14.1075 C.ar    1  UNL1        0.0148
      9 C          66.0284   92.0433   13.3578 C.ar    1  UNL1        0.0028
     10 C          65.4466   92.4659   12.0415 C.ar    1  UNL1        0.0201
     11 C          64.2652   91.7359   11.4747 C.ar    1  UNL1        0.0028
     12 C          63.6655   90.5833   12.2244 C.ar    1  UNL1        0.0148
     13 C          66.0463   93.6185   11.2918 C.ar    1  UNL1        0.1114
     14 C          66.6824   93.5525    9.9350 C.ar    1  UNL1        0.0774
     15 S          67.1443   94.9327    9.5720 S.2     1  UNL1        0.0378
     16 N          66.7937   95.8516   10.7045 N.ar    1  UNL1       -0.1094
     17 N          66.1151   95.0394   11.7674 N.ar    1  UNL1       -0.1405
     18 N          62.1776   84.9653   12.3143 N.ar    1  UNL1       -0.2162
     19 N          62.1964   83.4892   12.0484 N.ar    1  UNL1       -0.1683
     20 C          62.7551   82.8066   13.2616 C.ar    1  UNL1        0.0810
     21 C          63.0815   83.8609   14.2775 C.ar    1  UNL1        0.0509
     22 C          62.7246   85.1950   13.6920 C.ar    1  UNL1        0.1380
     23 C          60.2524   89.2063    8.5318 C.3     1  UNL1        0.0310
     24 C          60.7337   88.1460    9.4774 C.ar    1  UNL1       -0.0218
     25 C          60.2358   88.1206   10.8921 C.ar    1  UNL1       -0.0027
     26 C          60.7171   87.0604   11.8377 C.ar    1  UNL1        0.0189
     27 C          61.6963   86.0255   11.3687 C.ar    1  UNL1        0.0842
     28 C          62.1943   86.0509    9.9540 C.ar    1  UNL1        0.0189
     29 C          61.7130   87.1111    9.0084 C.ar    1  UNL1       -0.0027
     30 C          62.9525   81.3292   13.4295 C.3     1  UNL1        0.0372
     31 C          64.3124   81.4401   12.8063 C.3     1  UNL1        0.0060
     32 C          61.5927   81.2182   14.0527 C.3     1  UNL1        0.0060
     33 C          63.1500   79.8518   13.5974 C.3     1  UNL1        0.0060
@<TRIPOS>BOND
     1    23    24    1
     2    24    25   ar
     3    25    26   ar
     4    26    27   ar
     5    27    18    1
     6    18    19   ar
     7    19    20   ar
     8    20    30    1
     9    30    31    1
    10    30    32    1
    11    30    33    1
    12    20    21   ar
    13    21    22   ar
    14    22     1    1
    15     1     2   am
    16     2     3    2
    17     2     4   am
    18     4     7    1
    19     7     8   ar
    20     8     9   ar
    21     9    10   ar
    22    10    13    1
    23    13    14   ar
    24    14    15   ar
    25    15    16   ar
    26    16    17   ar
    27    10    11   ar
    28    11    12   ar
    29    27    28   ar
    30    28    29   ar
    31    29    24   ar
    32    22    18   ar
    33    12     7   ar
    34    17    13   ar
    35     1     5    1
    36     4     6    1
@<TRIPOS>MOLECULE
*****
 33 36 0 0 0
SMALL
GASTEIGER

@<TRIPOS>ATOM
      1 N          63.4962   88.3896   15.0664 N.am    1  UNL1       -0.2533
      2 C          63.4711   87.1273   14.2565 C.2     1  UNL1        0.3092
      3 O          63.9596   87.1363   12.8383 O.2     1  UNL1       -0.2521
      4 N          62.9575   85.8560   14.8647 N.am    1  UNL1       -0.2680
      5 H          63.1756   88.3836   15.9972 H       1  UNL1        0.1578
      6 H          62.6369   85.8500   15.7955 H       1  UNL1        0.1564
      7 C          62.9324   84.5937   14.0547 C.ar    1  UNL1        0.0516
      8 C          62.7244   84.6589   12.5707 C.ar    1  UNL1        0.0148
      9 C          62.6994   83.3967   11.7607 C.ar    1  UNL1        0.0028
     10 C          62.8823   82.0692   12.4347 C.ar    1  UNL1        0.0201
     11 C          63.0903   82.0040   13.9188 C.ar    1  UNL1        0.0028
     12 C          63.1154   83.2663   14.7287 C.ar    1  UNL1        0.0148
     13 C          62.8572   80.8070   11.6247 C.ar    1  UNL1        0.1114
     14 C          63.0588   80.7069   10.1417 C.ar    1  UNL1        0.0774
     15 S          62.9523   79.2612    9.7559 S.2     1  UNL1        0.0378
     16 N          62.6850   78.4679   11.0005 N.ar    1  UNL1       -0.1094
     17 N          62.6262   79.4232   12.1556 N.ar    1  UNL1       -0.1405
     18 N          63.5638   90.2587   13.1568 N.ar    1  UNL1       -0.2162
     19 N          64.3379   91.5249   12.9390 N.ar    1  UNL1       -0.1683
     20 C          65.2622   91.7097   14.1058 C.ar    1  UNL1        0.0810
     21 C          65.0594   90.5577   15.0448 C.ar    1  UNL1        0.0509
     22 C          64.0097   89.6609   14.4582 C.ar    1  UNL1        0.1380
     23 C          59.4128   87.9841    9.4695 C.3     1  UNL1        0.0310
     24 C          60.4506   88.5528   10.3913 C.ar    1  UNL1       -0.0218
     25 C          60.0468   89.1022   11.7273 C.ar    1  UNL1       -0.0027
     26 C          61.0846   89.6709   12.6492 C.ar    1  UNL1        0.0189
     27 C          62.5261   89.6900   12.2349 C.ar    1  UNL1        0.0842
     28 C          62.9298   89.1406   10.8989 C.ar    1  UNL1        0.0189
     29 C          61.8921   88.5719    9.9771 C.ar    1  UNL1       -0.0027
     30 C          66.2210   92.8469   14.2996 C.3     1  UNL1        0.0372
     31 C          66.1740   93.1372   12.8287 C.3     1  UNL1        0.0060
     32 C          66.2679   92.5567   15.7705 C.3     1  UNL1        0.0060
     33 C          67.1797   93.9841   14.4934 C.3     1  UNL1        0.0060
@<TRIPOS>BOND
     1    23    24    1
     2    24    25   ar
     3    25    26   ar
     4    26    27   ar
     5    27    18    1
     6    18    19   ar
     7    19    20   ar
     8    20    30    1
     9    30    31    1
    10    30    32    1
    11    30    33    1
    12    20    21   ar
    13    21    22   ar
    14    22     1    1
    15     1     2   am
    16     2     3    2
    17     2     4   am
    18     4     7    1
    19     7     8   ar
    20     8     9   ar
    21     9    10   ar
    22    10    13    1
    23    13    14   ar
    24    14    15   ar
    25    15    16   ar
    26    16    17   ar
    27    10    11   ar
    28    11    12   ar
    29    27    28   ar
    30    28    29   ar
    31    29    24   ar
    32    22    18   ar
    33    12     7   ar
    34    17    13   ar
    35     1     5    1
    36     4     6    1
@<TRIPOS>MOLECULE
*****
 33 36 0 0 0
SMALL
GASTEIGER

@<TRIPOS>ATOM
      1 N          64.4045   90.7462   13.9678 N.am    1  UNL1       -0.2533
      2 C          64.1568   89.2750   13.8132 C.2     1  UNL1        0.3092
      3 O          64.1639   88.6525   12.4484 O.2     1  UNL1       -0.2521
      4 N          63.9020   88.4260   15.0233 N.am    1  UNL1       -0.2680
      5 H          64.3998   91.1547   14.8635 H       1  UNL1        0.1578
      6 H          63.8973   88.8345   15.9190 H       1  UNL1        0.1564
      7 C          63.6543   86.9547   14.8686 C.ar    1  UNL1        0.0516
      8 C          63.5617   86.3496   13.4992 C.ar    1  UNL1        0.0148
      9 C          63.3141   84.8783   13.3446 C.ar    1  UNL1        0.0028
     10 C          63.1589   84.0121   14.5592 C.ar    1  UNL1        0.0201
     11 C          63.2514   84.6172   15.9286 C.ar    1  UNL1        0.0028
     12 C          63.4991   86.0885   16.0833 C.ar    1  UNL1        0.0148
     13 C          62.9112   82.5408   14.4046 C.ar    1  UNL1        0.1114
     14 C          61.5798   81.8907   14.1706 C.ar    1  UNL1        0.0774
     15 S          61.7971   80.4094   14.0782 S.2     1  UNL1        0.0378
     16 N          63.2628   80.1440   14.2550 N.ar    1  UNL1       -0.1094
     17 N          63.9514   81.4614   14.4567 N.ar    1  UNL1       -0.1405
     18 N          63.8902   91.5495   11.4707 N.ar    1  UNL1       -0.2162
     19 N          64.4836   92.5649   10.5398 N.ar    1  UNL1       -0.1683
     20 C          65.6195   93.2382   11.2514 C.ar    1  UNL1        0.0810
     21 C          65.7282   92.6389   12.6221 C.ar    1  UNL1        0.0509
     22 C          64.6594   91.5952   12.7577 C.ar    1  UNL1        0.1380
     23 C          59.2538   87.9388   10.2594 C.3     1  UNL1        0.0310
     24 C          60.4129   88.8415   10.5622 C.ar    1  UNL1       -0.0218
     25 C          61.6541   88.7756    9.7226 C.ar    1  UNL1       -0.0027
     26 C          62.8132   89.6783   10.0254 C.ar    1  UNL1        0.0189
     27 C          62.7311   90.6468   11.1679 C.ar    1  UNL1        0.0842
     28 C          61.4899   90.7126   12.0075 C.ar    1  UNL1        0.0189
     29 C          60.3308   89.8100   11.7047 C.ar    1  UNL1       -0.0027
     30 C          66.4934   94.3208   10.6906 C.3     1  UNL1        0.0372
     31 C          65.8447   95.3178   11.6045 C.3     1  UNL1        0.0060
     32 C          67.1421   93.3238    9.7767 C.3     1  UNL1        0.0060
     33 C          67.3673   95.4033   10.1299 C.3     1  UNL1        0.0060
@<TRIPOS>BOND
     1    23    24    1
     2    24    25   ar
     3    25    26   ar
     4    26    27   ar
     5    27    18    1
     6    18    19   ar
     7    19    20   ar
     8    20    30    1
     9    30    31    1
    10    30    32    1
    11    30    33    1
    12    20    21   ar
    13    21    22   ar
    14    22     1    1
    15     1     2   am
    16     2     3    2
    17     2     4   am
    18     4     7    1
    19     7     8   ar
    20     8     9   ar
    21     9    10   ar
    22    10    13    1
    23    13    14   ar
    24    14    15   ar
    25    15    16   ar
    26    16    17   ar
    27    10    11   ar
    28    11    12   ar
    29    27    28   ar
    30    28    29   ar
    31    29    24   ar
    32    22    18   ar
    33    12     7   ar
    34    17    13   ar
    35     1     5    1
    36     4     6    1
@<TRIPOS>MOLECULE
*****
 33 36 0 0 0
SMALL
GASTEIGER

@<TRIPOS>ATOM
      1 N          61.7062   88.1348   12.1419 N.am    1  UNL1       -0.2533
      2 C          62.9045   88.8543   12.6862 C.2     1  UNL1        0.3092
      3 O          64.2473   88.1857   12.6806 O.2     1  UNL1       -0.2521
      4 N          62.7602   90.2424   13.2361 N.am    1  UNL1       -0.2680
      5 H          60.8249   88.5736   12.1457 H       1  UNL1        0.1578
      6 H          61.8789   90.6812   13.2398 H       1  UNL1        0.1564
      7 C          63.9586   90.9618   13.7803 C.ar    1  UNL1        0.0516
      8 C          64.1975   91.0080   15.2605 C.ar    1  UNL1        0.0148
      9 C          65.3959   91.7274   15.8047 C.ar    1  UNL1        0.0028
     10 C          66.3554   92.4007   14.8689 C.ar    1  UNL1        0.0201
     11 C          66.1166   92.3546   13.3888 C.ar    1  UNL1        0.0028
     12 C          64.9182   91.6351   12.8445 C.ar    1  UNL1        0.0148
     13 C          67.5538   93.1202   15.4132 C.ar    1  UNL1        0.1114
     14 C          68.8053   92.4789   15.9352 C.ar    1  UNL1        0.0774
     15 S          69.7361   93.5696   16.3756 S.2     1  UNL1        0.0378
     16 N          69.0599   94.8850   16.1257 N.ar    1  UNL1       -0.1094
     17 N          67.7111   94.6073   15.5309 N.ar    1  UNL1       -0.1405
     18 N          61.3873   86.2799   10.2439 N.ar    1  UNL1       -0.2162
     19 N          61.7339   84.8264   10.1124 N.ar    1  UNL1       -0.1683
     20 C          62.4113   84.3949   11.3793 C.ar    1  UNL1        0.0810
     21 C          62.4834   85.5818   12.2938 C.ar    1  UNL1        0.0509
     22 C          61.8505   86.7467   11.5920 C.ar    1  UNL1        0.1380
     23 C          58.6318   89.6369    6.1041 C.3     1  UNL1        0.0310
     24 C          59.3207   88.7977    7.1391 C.ar    1  UNL1       -0.0218
     25 C          59.1940   87.3036    7.0988 C.ar    1  UNL1       -0.0027
     26 C          59.8829   86.4643    8.1338 C.ar    1  UNL1        0.0189
     27 C          60.6984   87.1191    9.2090 C.ar    1  UNL1        0.0842
     28 C          60.8251   88.6132    9.2492 C.ar    1  UNL1        0.0189
     29 C          60.1363   89.4525    8.2143 C.ar    1  UNL1       -0.0027
     30 C          62.9263   83.0184   11.6790 C.3     1  UNL1        0.0372
     31 C          62.3529   83.1051   13.0624 C.3     1  UNL1        0.0060
     32 C          63.4996   82.9316   10.2957 C.3     1  UNL1        0.0060
     33 C          63.4412   81.6418   11.9788 C.3     1  UNL1        0.0060
@<TRIPOS>BOND
     1    23    24    1
     2    24    25   ar
     3    25    26   ar
     4    26    27   ar
     5    27    18    1
     6    18    19   ar
     7    19    20   ar
     8    20    30    1
     9    30    31    1
    10    30    32    1
    11    30    33    1
    12    20    21   ar
    13    21    22   ar
    14    22     1    1
    15     1     2   am
    16     2     3    2
    17     2     4   am
    18     4     7    1
    19     7     8   ar
    20     8     9   ar
    21     9    10   ar
    22    10    13    1
    23    13    14   ar
    24    14    15   ar
    25    15    16   ar
    26    16    17   ar
    27    10    11   ar
    28    11    12   ar
    29    27    28   ar
    30    28    29   ar
    31    29    24   ar
    32    22    18   ar
    33    12     7   ar
    34    17    13   ar
    35     1     5    1
    36     4     6    1
@<TRIPOS>MOLECULE
*****
 33 36 0 0 0
SMALL
GASTEIGER

@<TRIPOS>ATOM
      1 N          61.4063   96.0413   -2.2332 N.am    1  UNL1       -0.2533
      2 C          59.9511   95.8819   -2.5601 C.2     1  UNL1        0.3092
      3 O          59.5149   94.8477   -3.5553 O.2     1  UNL1       -0.2521
      4 N          58.9320   96.7565   -1.8919 N.am    1  UNL1       -0.2680
      5 H          61.6925   96.7201   -1.5800 H       1  UNL1        0.1578
      6 H          59.2183   97.4353   -1.2388 H       1  UNL1        0.1564
      7 C          57.4768   96.5971   -2.2189 C.ar    1  UNL1        0.0516
      8 C          56.5094   96.1803   -1.1510 C.ar    1  UNL1        0.0148
      9 C          55.0542   96.0208   -1.4779 C.ar    1  UNL1        0.0028
     10 C          54.5663   96.2780   -2.8728 C.ar    1  UNL1        0.0201
     11 C          55.5337   96.6948   -3.9408 C.ar    1  UNL1        0.0028
     12 C          56.9889   96.8543   -3.6138 C.ar    1  UNL1        0.0148
     13 C          53.1111   96.1185   -3.1998 C.ar    1  UNL1        0.1114
     14 C          52.4514   96.4968   -4.4927 C.ar    1  UNL1        0.0774
     15 S          50.9927   96.1648   -4.3833 S.2     1  UNL1        0.0378
     16 N          50.7509   95.5814   -3.0227 N.ar    1  UNL1       -0.1094
     17 N          52.0602   95.5528   -2.2912 N.ar    1  UNL1       -0.1405
     18 N          63.1086   93.9812   -2.2867 N.ar    1  UNL1       -0.2162
     19 N          64.0456   93.4059   -3.3070 N.ar    1  UNL1       -0.1683
     20 C          63.9415   94.2357   -4.5522 C.ar    1  UNL1        0.0810
     21 C          62.9401   95.3240   -4.3015 C.ar    1  UNL1        0.0509
     22 C          62.4254   95.1667   -2.9014 C.ar    1  UNL1        0.1380
     23 C          62.2453   91.9052    3.2761 C.3     1  UNL1        0.0310
     24 C          62.4612   92.4242    1.8854 C.ar    1  UNL1       -0.0218
     25 C          61.3422   92.3827    0.8873 C.ar    1  UNL1       -0.0027
     26 C          61.5581   92.9017   -0.5034 C.ar    1  UNL1        0.0189
     27 C          62.8928   93.4622   -0.8960 C.ar    1  UNL1        0.0842
     28 C          64.0117   93.5038    0.1021 C.ar    1  UNL1        0.0189
     29 C          63.7959   92.9848    1.4928 C.ar    1  UNL1       -0.0027
     30 C          64.7047   94.0159   -5.8246 C.3     1  UNL1        0.0372
     31 C          63.9898   92.7131   -6.0284 C.3     1  UNL1        0.0060
     32 C          65.4196   95.3188   -5.6209 C.3     1  UNL1        0.0060
     33 C          65.4679   93.7961   -7.0971 C.3     1  UNL1        0.0060
@<TRIPOS>BOND
     1    23    24    1
     2    24    25   ar
     3    25    26   ar
     4    26    27   ar
     5    27    18    1
     6    18    19   ar
     7    19    20   ar
     8    20    30    1
     9    30    31    1
    10    30    32    1
    11    30    33    1
    12    20    21   ar
    13    21    22   ar
    14    22     1    1
    15     1     2   am
    16     2     3    2
    17     2     4   am
    18     4     7    1
    19     7     8   ar
    20     8     9   ar
    21     9    10   ar
    22    10    13    1
    23    13    14   ar
    24    14    15   ar
    25    15    16   ar
    26    16    17   ar
    27    10    11   ar
    28    11    12   ar
    29    27    28   ar
    30    28    29   ar
    31    29    24   ar
    32    22    18   ar
    33    12     7   ar
    34    17    13   ar
    35     1     5    1
    36     4     6    1
@<TRIPOS>MOLECULE
*****
 33 36 0 0 0
SMALL
GASTEIGER

@<TRIPOS>ATOM
      1 N          59.6873   95.5265   -0.4644 N.am    1  UNL1       -0.2533
      2 C          58.4611   95.5267   -1.3282 C.2     1  UNL1        0.3092
      3 O          58.5064   94.9099   -2.6949 O.2     1  UNL1       -0.2521
      4 N          57.1896   96.1436   -0.8256 N.am    1  UNL1       -0.2680
      5 H          59.6575   95.9312    0.4326 H       1  UNL1        0.1578
      6 H          57.1598   96.5483    0.0713 H       1  UNL1        0.1564
      7 C          55.9634   96.1437   -1.6896 C.ar    1  UNL1        0.0516
      8 C          54.7244   95.4317   -1.2335 C.ar    1  UNL1        0.0148
      9 C          53.4982   95.4319   -2.0974 C.ar    1  UNL1        0.0028
     10 C          53.5109   96.1440   -3.4175 C.ar    1  UNL1        0.0201
     11 C          54.7499   96.8560   -3.8737 C.ar    1  UNL1        0.0028
     12 C          55.9761   96.8558   -3.0097 C.ar    1  UNL1        0.0148
     13 C          52.2847   96.1442   -4.2815 C.ar    1  UNL1        0.1114
     14 C          52.2075   96.6179   -5.7026 C.ar    1  UNL1        0.0774
     15 S          50.7955   96.4371   -6.1755 S.2     1  UNL1        0.0378
     16 N          50.0001   95.8517   -5.0466 N.ar    1  UNL1       -0.1094
     17 N          50.9204   95.6706   -3.8760 N.ar    1  UNL1       -0.1405
     18 N          61.7582   93.8474   -0.2722 N.ar    1  UNL1       -0.2162
     19 N          62.9476   93.5280   -1.1285 N.ar    1  UNL1       -0.1683
     20 C          62.8833   94.3927   -2.3525 C.ar    1  UNL1        0.0810
     21 C          61.6542   95.2466   -2.2527 C.ar    1  UNL1        0.0509
     22 C          60.9588   94.9096   -0.9670 C.ar    1  UNL1        0.1380
     23 C          60.4312   91.3203    5.0054 C.3     1  UNL1        0.0310
     24 C          60.7630   91.9521    3.6860 C.ar    1  UNL1       -0.0218
     25 C          62.1503   91.8377    3.1274 C.ar    1  UNL1       -0.0027
     26 C          62.4821   92.4694    1.8080 C.ar    1  UNL1        0.0189
     27 C          61.4265   93.2156    1.0472 C.ar    1  UNL1        0.0842
     28 C          60.0391   93.3301    1.6058 C.ar    1  UNL1        0.0189
     29 C          59.7074   92.6983    2.9252 C.ar    1  UNL1       -0.0027
     30 C          63.8742   94.4018   -3.4785 C.3     1  UNL1        0.0372
     31 C          64.2078   95.8321   -3.1734 C.3     1  UNL1        0.0060
     32 C          63.5407   92.9716   -3.7837 C.3     1  UNL1        0.0060
     33 C          64.8651   94.4110   -4.6046 C.3     1  UNL1        0.0060
@<TRIPOS>BOND
     1    23    24    1
     2    24    25   ar
     3    25    26   ar
     4    26    27   ar
     5    27    18    1
     6    18    19   ar
     7    19    20   ar
     8    20    30    1
     9    30    31    1
    10    30    32    1
    11    30    33    1
    12    20    21   ar
    13    21    22   ar
    14    22     1    1
    15     1     2   am
    16     2     3    2
    17     2     4   am
    18     4     7    1
    19     7     8   ar
    20     8     9   ar
    21     9    10   ar
    22    10    13    1
    23    13    14   ar
    24    14    15   ar
    25    15    16   ar
    26    16    17   ar
    27    10    11   ar
    28    11    12   ar
    29    27    28   ar
    30    28    29   ar
    31    29    24   ar
    32    22    18   ar
    33    12     7   ar
    34    17    13   ar
    35     1     5    1
    36     4     6    1
