@<TRIPOS>MOLECULE
*****
 44 47 0 0 0
SMALL
GASTEIGER

@<TRIPOS>ATOM
      1 C          63.1455   90.2333   12.5521 C.2     1  UNL1        0.2460
      2 O          62.3475   89.8363   13.7585 O.2     1  UNL1       -0.2701
      3 N          62.7172   89.7811   11.1875 N.am    1  UNL1       -0.2997
      4 H          63.2410   90.0417   10.3957 H       1  UNL1        0.1498
      5 C          66.4435   91.8061   14.1011 C.ar    1  UNL1        0.0461
      6 C          65.2172   90.9569   13.9429 C.ar    1  UNL1        0.0189
      7 C          64.3719   91.0825   12.7102 C.ar    1  UNL1        0.0559
      8 C          64.7528   92.0572   11.6356 C.ar    1  UNL1        0.0207
      9 C          65.9791   92.9064   11.7938 C.ar    1  UNL1        0.0698
     10 C          66.8245   92.7808   13.0265 C.ar    1  UNL1        0.0304
     11 N          66.3601   93.8812   10.7192 N.pl3   1  UNL1       -0.1943
     12 C          65.7744   95.2621   10.7172 C.3     1  UNL1        0.1155
     13 C          66.1554   96.2369    9.6426 C.3     1  UNL1        0.0252
     14 C          67.1221   95.8307    8.5700 C.3     1  UNL1        0.0292
     15 C          67.7079   94.4498    8.5721 C.3     1  UNL1        0.1727
     16 S          67.3269   93.4750    9.6466 S.O2    1  UNL1        0.0569
     17 O          67.2754   92.2062   10.4450 O.2     1  UNL1       -0.1543
     18 O          68.2758   92.6282    8.8514 O.2     1  UNL1       -0.1543
     19 N          67.2889   91.6805   15.3338 N.pl3   1  UNL1       -0.3326
     20 H          67.6238   90.7979   15.6132 H       1  UNL1        0.1468
     21 C          68.9070   93.6354   15.8904 C.3     1  UNL1        0.0229
     22 C          67.6241   92.8997   16.1408 C.3     1  UNL1        0.0871
     23 C          61.4910   88.9319   11.0293 C.3     1  UNL1        0.1043
     24 C          60.2710   89.4932   10.3609 C.3     1  UNL1        0.1443
     25 O          59.5386   90.6455   10.9821 O.3     1  UNL1       -0.3813
     26 H          59.9817   90.9042   11.8053 H       1  UNL1        0.2105
     27 C          59.7836   88.9024    9.0712 C.3     1  UNL1        0.1001
     28 N          60.1367   89.5538    7.7670 N.3     1  UNL1       -0.2916
     29 H          61.0489   89.1888    7.4931 H       1  UNL1        0.1236
     30 C          59.2327   89.3953    6.5805 C.3     1  UNL1        0.0989
     31 C          59.0594   90.5284    5.6131 C.ar    1  UNL1        0.0332
     32 C          57.7667   91.2114    5.2777 C.ar    1  UNL1        0.1187
     33 N          58.0566   92.2826    4.2685 N.ar    1  UNL1       -0.1680
     34 N          59.5285   92.2616    3.9801 N.ar    1  UNL1       -0.2497
     35 C          60.1482   91.1774    4.8111 C.ar    1  UNL1        0.0937
     36 C          60.2534   93.1659    3.0279 C.3     1  UNL1        0.1276
     37 C          61.5225   92.7048    2.3746 C.3     1  UNL1        0.0284
     38 C          61.4845   87.5214   11.5396 C.3     1  UNL1        0.0484
     39 C          62.1418   86.4329   10.7438 C.ar    1  UNL1       -0.0204
     40 C          62.3296   86.5943    9.2644 C.ar    1  UNL1       -0.0042
     41 C          62.9869   85.5060    8.4686 C.ar    1  UNL1       -0.0003
     42 C          63.4564   84.2561    9.1522 C.ar    1  UNL1       -0.0000
     43 C          63.2687   84.0947   10.6316 C.ar    1  UNL1       -0.0003
     44 C          62.6114   85.1831   11.4274 C.ar    1  UNL1       -0.0042
@<TRIPOS>BOND
     1    21    22    1
     2    22    19    1
     3    19     5    1
     4     5     6   ar
     5     6     7   ar
     6     7     1    1
     7     1     2    2
     8     1     3   am
     9     3    23    1
    10    23    38    1
    11    38    39    1
    12    39    40   ar
    13    40    41   ar
    14    41    42   ar
    15    42    43   ar
    16    43    44   ar
    17    23    24    1
    18    24    25    1
    19    24    27    1
    20    27    28    1
    21    28    30    1
    22    30    31    1
    23    31    32   ar
    24    32    33   ar
    25    33    34   ar
    26    34    36    1
    27    36    37    1
    28    34    35   ar
    29     7     8   ar
    30     8     9   ar
    31     9    11    1
    32    11    12    1
    33    12    13    1
    34    13    14    1
    35    14    15    1
    36    15    16    1
    37    16    17    2
    38    16    18    2
    39     9    10   ar
    40    10     5   ar
    41    44    39   ar
    42    35    31   ar
    43    16    11    1
    44    19    20    1
    45     3     4    1
    46    25    26    1
    47    28    29    1
@<TRIPOS>MOLECULE
*****
 44 47 0 0 0
SMALL
GASTEIGER

@<TRIPOS>ATOM
      1 C          63.4993   90.5381   13.0667 C.2     1  UNL1        0.2460
      2 O          62.6699   90.1192   14.2442 O.2     1  UNL1       -0.2701
      3 N          63.1938   89.9942   11.7026 N.am    1  UNL1       -0.2997
      4 H          63.7382   90.2692   10.9297 H       1  UNL1        0.1498
      5 C          66.5257   92.4896   14.7349 C.ar    1  UNL1        0.0461
      6 C          65.3908   91.5267   14.5482 C.ar    1  UNL1        0.0189
      7 C          64.6342   91.5011   13.2533 C.ar    1  UNL1        0.0559
      8 C          65.0125   92.4383   12.1449 C.ar    1  UNL1        0.0207
      9 C          66.1474   93.4011   12.3316 C.ar    1  UNL1        0.0698
     10 C          66.9040   93.4268   13.6265 C.ar    1  UNL1        0.0304
     11 N          66.5258   94.3384   11.2232 N.pl3   1  UNL1       -0.1943
     12 C          65.8764   95.6872   11.1271 C.3     1  UNL1        0.1155
     13 C          66.2548   96.6244   10.0187 C.3     1  UNL1        0.0252
     14 C          67.2825   96.2129    9.0065 C.3     1  UNL1        0.0292
     15 C          67.9318   94.8641    9.1027 C.3     1  UNL1        0.1727
     16 S          67.5535   93.9269   10.2110 S.O2    1  UNL1        0.0569
     17 O          67.5290   92.6986   11.0717 O.2     1  UNL1       -0.1543
     18 O          68.5727   93.0888    9.4978 O.2     1  UNL1       -0.1543
     19 N          67.2823   92.5152   16.0298 N.pl3   1  UNL1       -0.3326
     20 H          66.8012   92.4162   16.8831 H       1  UNL1        0.1468
     21 C          69.3653   94.0610   16.1766 C.3     1  UNL1        0.0229
     22 C          68.7718   92.6918   16.0248 C.3     1  UNL1        0.0871
     23 C          62.0589   89.0313   11.5160 C.3     1  UNL1        0.1043
     24 C          60.6427   89.5037   11.6621 C.3     1  UNL1        0.1443
     25 O          59.9008   89.2643   12.9436 O.3     1  UNL1       -0.3813
     26 H          60.4766   88.7959   13.5680 H       1  UNL1        0.2105
     27 C          59.9686   90.2155   10.5268 C.3     1  UNL1        0.1001
     28 N          60.1548   89.7288    9.1203 N.3     1  UNL1       -0.2916
     29 H          61.1212   89.4115    9.0440 H       1  UNL1        0.1236
     30 C          59.2925   88.6222    8.5892 C.3     1  UNL1        0.0989
     31 C          59.9211   87.3545    8.0915 C.ar    1  UNL1        0.0332
     32 C          59.2606   86.3243    7.2240 C.ar    1  UNL1        0.1187
     33 N          60.2519   85.2276    6.9702 N.ar    1  UNL1       -0.1680
     34 N          61.5251   85.5799    7.6809 N.ar    1  UNL1       -0.2497
     35 C          61.3206   86.8944    8.3739 C.ar    1  UNL1        0.0937
     36 C          62.7820   84.7614    7.6959 C.3     1  UNL1        0.1276
     37 C          63.5246   84.5510    8.9821 C.3     1  UNL1        0.0284
     38 C          62.3402   87.5960   11.1832 C.3     1  UNL1        0.0484
     39 C          62.8079   86.6555   12.2541 C.ar    1  UNL1       -0.0204
     40 C          63.7291   87.1449   13.3320 C.ar    1  UNL1       -0.0042
     41 C          64.1968   86.2045   14.4029 C.ar    1  UNL1       -0.0003
     42 C          63.7433   84.7748   14.3960 C.ar    1  UNL1       -0.0000
     43 C          62.8220   84.2854   13.3181 C.ar    1  UNL1       -0.0003
     44 C          62.3543   85.2258   12.2471 C.ar    1  UNL1       -0.0042
@<TRIPOS>BOND
     1    21    22    1
     2    22    19    1
     3    19     5    1
     4     5     6   ar
     5     6     7   ar
     6     7     1    1
     7     1     2    2
     8     1     3   am
     9     3    23    1
    10    23    38    1
    11    38    39    1
    12    39    40   ar
    13    40    41   ar
    14    41    42   ar
    15    42    43   ar
    16    43    44   ar
    17    23    24    1
    18    24    25    1
    19    24    27    1
    20    27    28    1
    21    28    30    1
    22    30    31    1
    23    31    32   ar
    24    32    33   ar
    25    33    34   ar
    26    34    36    1
    27    36    37    1
    28    34    35   ar
    29     7     8   ar
    30     8     9   ar
    31     9    11    1
    32    11    12    1
    33    12    13    1
    34    13    14    1
    35    14    15    1
    36    15    16    1
    37    16    17    2
    38    16    18    2
    39     9    10   ar
    40    10     5   ar
    41    44    39   ar
    42    35    31   ar
    43    16    11    1
    44    19    20    1
    45     3     4    1
    46    25    26    1
    47    28    29    1
@<TRIPOS>MOLECULE
*****
 44 47 0 0 0
SMALL
GASTEIGER

@<TRIPOS>ATOM
      1 C          62.5740   89.7873   10.3715 C.2     1  UNL1        0.2460
      2 O          61.5715   90.3778    9.4247 O.2     1  UNL1       -0.2701
      3 N          62.6559   88.2997   10.5452 N.am    1  UNL1       -0.2997
      4 H          63.3138   87.9121   11.1666 H       1  UNL1        0.1498
      5 C          64.5965   91.3782   13.3928 C.ar    1  UNL1        0.0461
      6 C          63.6760   90.4811   12.6197 C.ar    1  UNL1        0.0189
      7 C          63.4945   90.6845   11.1447 C.ar    1  UNL1        0.0559
      8 C          64.2334   91.7851   10.4428 C.ar    1  UNL1        0.0207
      9 C          65.1539   92.6823   11.2160 C.ar    1  UNL1        0.0698
     10 C          65.3354   92.4788   12.6910 C.ar    1  UNL1        0.0304
     11 N          65.8929   93.7829   10.5141 N.pl3   1  UNL1       -0.1943
     12 C          65.3381   95.1765   10.5125 C.3     1  UNL1        0.1155
     13 C          66.0771   96.2772    9.8107 C.3     1  UNL1        0.0252
     14 C          67.3709   95.9841    9.1105 C.3     1  UNL1        0.0292
     15 C          67.9257   94.5904    9.1121 C.3     1  UNL1        0.1727
     16 S          67.1867   93.4899    9.8139 S.O2    1  UNL1        0.0569
     17 O          66.8572   92.1226   10.3355 O.2     1  UNL1       -0.1543
     18 O          68.3660   92.7219    9.2949 O.2     1  UNL1       -0.1543
     19 N          64.7780   91.1748   14.8678 N.pl3   1  UNL1       -0.3326
     20 H          65.2003   91.8772   15.4133 H       1  UNL1        0.1468
     21 C          63.1638   89.9211   16.4717 C.3     1  UNL1        0.0229
     22 C          64.3161   89.9012   15.5117 C.3     1  UNL1        0.0871
     23 C          61.7354   87.4025    9.7721 C.3     1  UNL1        0.1043
     24 C          60.2785   87.7409    9.6588 C.3     1  UNL1        0.1443
     25 O          59.5194   88.2017   10.8677 O.3     1  UNL1       -0.3813
     26 H          60.1142   88.2250   11.6336 H       1  UNL1        0.2105
     27 C          59.5806   87.6185    8.3367 C.3     1  UNL1        0.1001
     28 N          59.8226   88.6384    7.2638 N.3     1  UNL1       -0.2916
     29 H          60.0344   88.1226    6.4096 H       1  UNL1        0.1236
     30 C          58.7521   89.6302    6.9166 C.3     1  UNL1        0.0989
     31 C          58.9628   90.5975    5.7897 C.ar    1  UNL1        0.0332
     32 C          57.9043   91.4390    5.1405 C.ar    1  UNL1        0.1187
     33 N          58.5563   92.2547    4.0637 N.ar    1  UNL1       -0.1680
     34 N          60.0178   91.9172    4.0474 N.ar    1  UNL1       -0.2497
     35 C          60.2690   90.8930    5.1141 C.ar    1  UNL1        0.0937
     36 C          61.0473   92.5015    3.1261 C.3     1  UNL1        0.1276
     37 C          60.6298   93.0866    1.8095 C.3     1  UNL1        0.0284
     38 C          62.2719   86.1668    9.1122 C.3     1  UNL1        0.0484
     39 C          62.7577   85.0205    9.9489 C.ar    1  UNL1       -0.0204
     40 C          62.3380   84.9091   11.3847 C.ar    1  UNL1       -0.0042
     41 C          62.8238   83.7629   12.2213 C.ar    1  UNL1       -0.0003
     42 C          63.7293   82.7280   11.6222 C.ar    1  UNL1       -0.0000
     43 C          64.1490   82.8393   10.1864 C.ar    1  UNL1       -0.0003
     44 C          63.6632   83.9856    9.3498 C.ar    1  UNL1       -0.0042
@<TRIPOS>BOND
     1    21    22    1
     2    22    19    1
     3    19     5    1
     4     5     6   ar
     5     6     7   ar
     6     7     1    1
     7     1     2    2
     8     1     3   am
     9     3    23    1
    10    23    38    1
    11    38    39    1
    12    39    40   ar
    13    40    41   ar
    14    41    42   ar
    15    42    43   ar
    16    43    44   ar
    17    23    24    1
    18    24    25    1
    19    24    27    1
    20    27    28    1
    21    28    30    1
    22    30    31    1
    23    31    32   ar
    24    32    33   ar
    25    33    34   ar
    26    34    36    1
    27    36    37    1
    28    34    35   ar
    29     7     8   ar
    30     8     9   ar
    31     9    11    1
    32    11    12    1
    33    12    13    1
    34    13    14    1
    35    14    15    1
    36    15    16    1
    37    16    17    2
    38    16    18    2
    39     9    10   ar
    40    10     5   ar
    41    44    39   ar
    42    35    31   ar
    43    16    11    1
    44    19    20    1
    45     3     4    1
    46    25    26    1
    47    28    29    1
@<TRIPOS>MOLECULE
*****
 44 47 0 0 0
SMALL
GASTEIGER

@<TRIPOS>ATOM
      1 C          63.0402   90.5101   10.6439 C.2     1  UNL1        0.2460
      2 O          63.0214   91.7271    9.7673 O.2     1  UNL1       -0.2701
      3 N          63.8055   90.5268   11.9339 N.am    1  UNL1       -0.2997
      4 H          63.8178   89.7280   12.5093 H       1  UNL1        0.1498
      5 C          60.2670   88.1643    9.0449 C.ar    1  UNL1        0.0461
      6 C          61.0136   89.3979    9.4582 C.ar    1  UNL1        0.0189
      7 C          62.2937   89.2764   10.2306 C.ar    1  UNL1        0.0559
      8 C          62.8273   87.9214   10.5896 C.ar    1  UNL1        0.0207
      9 C          62.0808   86.6878   10.1762 C.ar    1  UNL1        0.0698
     10 C          60.8007   86.8092    9.4039 C.ar    1  UNL1        0.0304
     11 N          62.6144   85.3326   10.5352 N.pl3   1  UNL1       -0.1943
     12 C          63.3567   84.5239    9.5130 C.3     1  UNL1        0.1155
     13 C          63.8904   83.1687    9.8720 C.3     1  UNL1        0.0252
     14 C          63.6816   82.6223   11.2532 C.3     1  UNL1        0.0292
     15 C          62.9392   83.4310   12.2755 C.3     1  UNL1        0.1727
     16 S          62.4056   84.7861   11.9165 S.O2    1  UNL1        0.0569
     17 O          61.7164   86.1113   12.0537 O.2     1  UNL1       -0.1543
     18 O          61.9575   84.7000   13.3453 O.2     1  UNL1       -0.1543
     19 N          58.9869   88.2858    8.2725 N.pl3   1  UNL1       -0.3326
     20 H          58.1224   88.2147    8.7382 H       1  UNL1        0.1468
     21 C          59.3414   89.8787    6.2509 C.3     1  UNL1        0.0229
     22 C          59.0239   88.5157    6.7908 C.3     1  UNL1        0.0871
     23 C          64.5519   91.7604   12.3473 C.3     1  UNL1        0.1043
     24 C          65.1112   91.8690   13.7349 C.3     1  UNL1        0.1443
     25 O          65.9187   93.0710   14.1261 O.3     1  UNL1       -0.3813
     26 H          65.9833   93.6767   13.3713 H       1  UNL1        0.2105
     27 C          64.8629   90.7756   14.7313 C.3     1  UNL1        0.1001
     28 N          63.4576   90.3913   15.0884 N.3     1  UNL1       -0.2916
     29 H          63.1326   89.7545   14.3609 H       1  UNL1        0.1236
     30 C          63.1725   89.7282   16.4034 C.3     1  UNL1        0.0989
     31 C          63.2399   88.2343   16.5202 C.ar    1  UNL1        0.0332
     32 C          62.5759   87.4017   17.5766 C.ar    1  UNL1        0.1187
     33 N          62.9087   85.9636   17.3105 N.ar    1  UNL1       -0.1680
     34 N          63.7785   85.9073   16.0897 N.ar    1  UNL1       -0.2497
     35 C          63.9831   87.3107   15.6013 C.ar    1  UNL1        0.0937
     36 C          64.3442   84.6656   15.4666 C.3     1  UNL1        0.1276
     37 C          65.4243   84.7713   14.4311 C.3     1  UNL1        0.0284
     38 C          64.7393   92.8854   11.3730 C.3     1  UNL1        0.0484
     39 C          66.0493   93.0510   10.6614 C.ar    1  UNL1       -0.0204
     40 C          66.3620   94.3371    9.9554 C.ar    1  UNL1       -0.0042
     41 C          67.6720   94.5027    9.2438 C.ar    1  UNL1       -0.0003
     42 C          68.6693   93.3823    9.2382 C.ar    1  UNL1       -0.0000
     43 C          68.3566   92.0963    9.9441 C.ar    1  UNL1       -0.0003
     44 C          67.0466   91.9307   10.6557 C.ar    1  UNL1       -0.0042
@<TRIPOS>BOND
     1    21    22    1
     2    22    19    1
     3    19     5    1
     4     5     6   ar
     5     6     7   ar
     6     7     1    1
     7     1     2    2
     8     1     3   am
     9     3    23    1
    10    23    38    1
    11    38    39    1
    12    39    40   ar
    13    40    41   ar
    14    41    42   ar
    15    42    43   ar
    16    43    44   ar
    17    23    24    1
    18    24    25    1
    19    24    27    1
    20    27    28    1
    21    28    30    1
    22    30    31    1
    23    31    32   ar
    24    32    33   ar
    25    33    34   ar
    26    34    36    1
    27    36    37    1
    28    34    35   ar
    29     7     8   ar
    30     8     9   ar
    31     9    11    1
    32    11    12    1
    33    12    13    1
    34    13    14    1
    35    14    15    1
    36    15    16    1
    37    16    17    2
    38    16    18    2
    39     9    10   ar
    40    10     5   ar
    41    44    39   ar
    42    35    31   ar
    43    16    11    1
    44    19    20    1
    45     3     4    1
    46    25    26    1
    47    28    29    1
@<TRIPOS>MOLECULE
*****
 44 47 0 0 0
SMALL
GASTEIGER

@<TRIPOS>ATOM
      1 C          63.5164   90.9285   12.0963 C.2     1  UNL1        0.2460
      2 O          62.8998   91.6208   13.2754 O.2     1  UNL1       -0.2701
      3 N          64.9221   91.2538   11.6863 N.am    1  UNL1       -0.2997
      4 H          65.3268   90.7994   10.9124 H       1  UNL1        0.1498
      5 C          60.8564   89.3368    9.6182 C.ar    1  UNL1        0.0461
      6 C          61.6455   90.3544   10.3874 C.ar    1  UNL1        0.0189
      7 C          62.7273   89.9108   11.3271 C.ar    1  UNL1        0.0559
      8 C          63.0199   88.4495   11.4976 C.ar    1  UNL1        0.0207
      9 C          62.2308   87.4319   10.7284 C.ar    1  UNL1        0.0698
     10 C          61.1490   87.8755    9.7887 C.ar    1  UNL1        0.0304
     11 N          62.5235   85.9706   10.8988 N.pl3   1  UNL1       -0.1943
     12 C          62.4222   85.3387   12.2554 C.3     1  UNL1        0.1155
     13 C          62.7148   83.8774   12.4258 C.3     1  UNL1        0.0252
     14 C          63.1087   83.0480   11.2396 C.3     1  UNL1        0.0292
     15 C          63.2100   83.6800    9.8830 C.3     1  UNL1        0.1727
     16 S          62.9174   85.1413    9.7126 S.O2    1  UNL1        0.0569
     17 O          62.7402   86.4755    9.0504 O.2     1  UNL1       -0.1543
     18 O          63.2498   84.7754    8.2964 O.2     1  UNL1       -0.1543
     19 N          59.7746   89.7804    8.6785 N.pl3   1  UNL1       -0.3326
     20 H          59.2156   90.5589    8.9038 H       1  UNL1        0.1468
     21 C          59.3162   89.7954    6.1213 C.3     1  UNL1        0.0229
     22 C          59.5445   89.0379    7.3957 C.3     1  UNL1        0.0871
     23 C          65.7113   92.2714   12.4555 C.3     1  UNL1        0.1043
     24 C          66.6183   91.8335   13.5671 C.3     1  UNL1        0.1443
     25 O          68.1064   91.8915   13.3878 O.3     1  UNL1       -0.3813
     26 H          68.3124   92.2328   12.5035 H       1  UNL1        0.2105
     27 C          66.0372   91.3374   14.8579 C.3     1  UNL1        0.1001
     28 N          64.7387   91.8961   15.3595 N.3     1  UNL1       -0.2916
     29 H          64.1802   92.1266   14.5376 H       1  UNL1        0.1236
     30 C          63.8655   91.0727   16.2593 C.3     1  UNL1        0.0989
     31 C          63.7633   89.5903   16.0539 C.ar    1  UNL1        0.0332
     32 C          64.2668   88.8283   14.8639 C.ar    1  UNL1        0.1187
     33 N          63.9543   87.3768   15.0769 N.ar    1  UNL1       -0.1680
     34 N          63.2578   87.2417   16.3986 N.ar    1  UNL1       -0.2497
     35 C          63.1398   88.6097   17.0023 C.ar    1  UNL1        0.0937
     36 C          62.7657   85.9630   17.0092 C.3     1  UNL1        0.1276
     37 C          62.4784   84.7772   16.1368 C.3     1  UNL1        0.0284
     38 C          65.5934   93.7271   12.1131 C.3     1  UNL1        0.0484
     39 C          66.2505   94.2619   10.8752 C.ar    1  UNL1       -0.0204
     40 C          65.9885   95.6723   10.4368 C.ar    1  UNL1       -0.0042
     41 C          66.6455   96.2072    9.1990 C.ar    1  UNL1       -0.0003
     42 C          67.5644   95.3317    8.3995 C.ar    1  UNL1       -0.0000
     43 C          67.8263   93.9213    8.8380 C.ar    1  UNL1       -0.0003
     44 C          67.1693   93.3864   10.0758 C.ar    1  UNL1       -0.0042
@<TRIPOS>BOND
     1    21    22    1
     2    22    19    1
     3    19     5    1
     4     5     6   ar
     5     6     7   ar
     6     7     1    1
     7     1     2    2
     8     1     3   am
     9     3    23    1
    10    23    38    1
    11    38    39    1
    12    39    40   ar
    13    40    41   ar
    14    41    42   ar
    15    42    43   ar
    16    43    44   ar
    17    23    24    1
    18    24    25    1
    19    24    27    1
    20    27    28    1
    21    28    30    1
    22    30    31    1
    23    31    32   ar
    24    32    33   ar
    25    33    34   ar
    26    34    36    1
    27    36    37    1
    28    34    35   ar
    29     7     8   ar
    30     8     9   ar
    31     9    11    1
    32    11    12    1
    33    12    13    1
    34    13    14    1
    35    14    15    1
    36    15    16    1
    37    16    17    2
    38    16    18    2
    39     9    10   ar
    40    10     5   ar
    41    44    39   ar
    42    35    31   ar
    43    16    11    1
    44    19    20    1
    45     3     4    1
    46    25    26    1
    47    28    29    1
@<TRIPOS>MOLECULE
*****
 44 47 0 0 0
SMALL
GASTEIGER

@<TRIPOS>ATOM
      1 C          63.7632   88.0498   13.4609 C.2     1  UNL1        0.2460
      2 O          64.8986   87.4707   14.2517 O.2     1  UNL1       -0.2701
      3 N          63.3303   89.4664   13.6973 N.am    1  UNL1       -0.2997
      4 H          62.5850   89.8464   13.1783 H       1  UNL1        0.1498
      5 C          62.4376   84.8785   11.4769 C.ar    1  UNL1        0.0461
      6 C          63.1402   85.7160   12.5040 C.ar    1  UNL1        0.0189
      7 C          63.0605   87.2123   12.4338 C.ar    1  UNL1        0.0559
      8 C          62.2783   87.8710   11.3365 C.ar    1  UNL1        0.0207
      9 C          61.5757   87.0335   10.3094 C.ar    1  UNL1        0.0698
     10 C          61.6553   85.5373   10.3797 C.ar    1  UNL1        0.0304
     11 N          60.7934   87.6922    9.2121 N.pl3   1  UNL1       -0.1943
     12 C          60.6490   89.1850    9.1859 C.3     1  UNL1        0.1155
     13 C          59.8667   89.8437    8.0885 C.3     1  UNL1        0.0252
     14 C          59.2288   89.0096    7.0173 C.3     1  UNL1        0.0292
     15 C          59.3732   87.5168    7.0436 C.3     1  UNL1        0.1727
     16 S          60.1555   86.8581    8.1409 S.O2    1  UNL1        0.0569
     17 O          60.7931   85.7797    8.9658 O.2     1  UNL1       -0.1543
     18 O          59.7391   85.6494    7.3563 O.2     1  UNL1       -0.1543
     19 N          62.5172   83.3823   11.5472 N.pl3   1  UNL1       -0.3326
     20 H          61.7215   82.8581   11.7948 H       1  UNL1        0.1468
     21 C          64.5371   82.9824    9.9628 C.3     1  UNL1        0.0229
     22 C          63.8092   82.6848   11.2402 C.3     1  UNL1        0.0871
     23 C          64.0329   90.3038   14.7243 C.3     1  UNL1        0.1043
     24 C          63.4481   90.4536   16.0976 C.3     1  UNL1        0.1443
     25 O          63.4295   91.7982   16.7622 O.3     1  UNL1       -0.3813
     26 H          63.8305   92.4559   16.1727 H       1  UNL1        0.2105
     27 C          62.8821   89.2588   16.8061 C.3     1  UNL1        0.1001
     28 N          63.4808   87.9017   16.5836 N.3     1  UNL1       -0.2916
     29 H          64.3645   87.8826   17.0927 H       1  UNL1        0.1236
     30 C          62.7222   86.6719   16.9866 C.3     1  UNL1        0.0989
     31 C          62.9536   85.3777   16.2645 C.ar    1  UNL1        0.0332
     32 C          64.2872   84.8090   15.8796 C.ar    1  UNL1        0.1187
     33 N          64.0498   83.5048   15.1778 N.ar    1  UNL1       -0.1680
     34 N          62.5694   83.2674   15.1289 N.ar    1  UNL1       -0.2497
     35 C          61.8920   84.4250   15.8005 C.ar    1  UNL1        0.0937
     36 C          61.8865   82.0809   14.5160 C.3     1  UNL1        0.1276
     37 C          62.6935   80.8954   14.0762 C.3     1  UNL1        0.0284
     38 C          65.3202   90.9916   14.3783 C.3     1  UNL1        0.0484
     39 C          65.3888   91.8987   13.1855 C.ar    1  UNL1       -0.0204
     40 C          64.6425   91.5477   11.9325 C.ar    1  UNL1       -0.0042
     41 C          64.7112   92.4547   10.7398 C.ar    1  UNL1       -0.0003
     42 C          65.5260   93.7126   10.8000 C.ar    1  UNL1       -0.0000
     43 C          66.2723   94.0635   12.0530 C.ar    1  UNL1       -0.0003
     44 C          66.2037   93.1565   13.2457 C.ar    1  UNL1       -0.0042
@<TRIPOS>BOND
     1    21    22    1
     2    22    19    1
     3    19     5    1
     4     5     6   ar
     5     6     7   ar
     6     7     1    1
     7     1     2    2
     8     1     3   am
     9     3    23    1
    10    23    38    1
    11    38    39    1
    12    39    40   ar
    13    40    41   ar
    14    41    42   ar
    15    42    43   ar
    16    43    44   ar
    17    23    24    1
    18    24    25    1
    19    24    27    1
    20    27    28    1
    21    28    30    1
    22    30    31    1
    23    31    32   ar
    24    32    33   ar
    25    33    34   ar
    26    34    36    1
    27    36    37    1
    28    34    35   ar
    29     7     8   ar
    30     8     9   ar
    31     9    11    1
    32    11    12    1
    33    12    13    1
    34    13    14    1
    35    14    15    1
    36    15    16    1
    37    16    17    2
    38    16    18    2
    39     9    10   ar
    40    10     5   ar
    41    44    39   ar
    42    35    31   ar
    43    16    11    1
    44    19    20    1
    45     3     4    1
    46    25    26    1
    47    28    29    1
@<TRIPOS>MOLECULE
*****
 44 47 0 0 0
SMALL
GASTEIGER

@<TRIPOS>ATOM
      1 C          63.3867   86.5941   13.6675 C.2     1  UNL1        0.2460
      2 O          64.6430   86.9713   14.3950 O.2     1  UNL1       -0.2701
      3 N          62.4759   85.5471   14.2369 N.am    1  UNL1       -0.2997
      4 H          61.6513   85.2995   13.7593 H       1  UNL1        0.1498
      5 C          62.7617   89.4279   10.9603 C.ar    1  UNL1        0.0461
      6 C          63.1072   88.7581   12.2572 C.ar    1  UNL1        0.0189
      7 C          63.0412   87.2639   12.3705 C.ar    1  UNL1        0.0559
      8 C          62.6296   86.4394   11.1870 C.ar    1  UNL1        0.0207
      9 C          62.2841   87.1092    9.8901 C.ar    1  UNL1        0.0698
     10 C          62.3502   88.6034    9.7767 C.ar    1  UNL1        0.0304
     11 N          61.8726   86.2847    8.7064 N.pl3   1  UNL1       -0.1943
     12 C          62.8823   85.4288    8.0010 C.3     1  UNL1        0.1155
     13 C          62.4708   84.6043    6.8174 C.3     1  UNL1        0.0252
     14 C          61.0494   84.6358    6.3392 C.3     1  UNL1        0.0292
     15 C          60.0396   85.4918    7.0447 C.3     1  UNL1        0.1727
     16 S          60.4512   86.3162    8.2282 S.O2    1  UNL1        0.0569
     17 O          60.3579   87.2662    9.3853 O.2     1  UNL1       -0.1543
     18 O          58.9974   86.6777    8.1520 O.2     1  UNL1       -0.1543
     19 N          62.8277   90.9222   10.8469 N.pl3   1  UNL1       -0.3326
     20 H          62.1511   91.4063   10.3206 H       1  UNL1        0.1468
     21 C          64.9773   92.3763   10.7259 C.3     1  UNL1        0.0229
     22 C          63.9247   91.6788   11.5355 C.3     1  UNL1        0.0871
     23 C          62.8213   84.8773   15.5338 C.3     1  UNL1        0.1043
     24 C          63.2661   85.6992   16.7072 C.3     1  UNL1        0.1443
     25 O          64.5124   85.3269   17.4543 O.3     1  UNL1       -0.3813
     26 H          64.9066   84.5370   17.0522 H       1  UNL1        0.2105
     27 C          62.4646   86.8932   17.1335 C.3     1  UNL1        0.1001
     28 N          63.1137   88.2431   17.2117 N.3     1  UNL1       -0.2916
     29 H          64.1215   88.0858   17.2092 H       1  UNL1        0.1236
     30 C          62.8336   89.2724   16.1570 C.3     1  UNL1        0.0989
     31 C          63.8565   90.3241   15.8449 C.ar    1  UNL1        0.0332
     32 C          64.0074   91.6425   16.5442 C.ar    1  UNL1        0.1187
     33 N          65.1524   92.3752   15.9101 N.ar    1  UNL1       -0.1680
     34 N          65.7091   91.5096   14.8188 N.ar    1  UNL1       -0.2497
     35 C          64.9083   90.2420   14.7785 C.ar    1  UNL1        0.0937
     36 C          66.8640   91.8517   13.9248 C.3     1  UNL1        0.1276
     37 C          68.1682   92.2929   14.5201 C.3     1  UNL1        0.0284
     38 C          62.7221   83.3857   15.6573 C.3     1  UNL1        0.0484
     39 C          62.8184   82.5237   14.4335 C.ar    1  UNL1       -0.0204
     40 C          63.8150   82.8519   13.3615 C.ar    1  UNL1       -0.0042
     41 C          63.9113   81.9899   12.1377 C.ar    1  UNL1       -0.0003
     42 C          63.0111   80.7998   11.9859 C.ar    1  UNL1       -0.0000
     43 C          62.0145   80.4716   13.0579 C.ar    1  UNL1       -0.0003
     44 C          61.9181   81.3336   14.2817 C.ar    1  UNL1       -0.0042
@<TRIPOS>BOND
     1    21    22    1
     2    22    19    1
     3    19     5    1
     4     5     6   ar
     5     6     7   ar
     6     7     1    1
     7     1     2    2
     8     1     3   am
     9     3    23    1
    10    23    38    1
    11    38    39    1
    12    39    40   ar
    13    40    41   ar
    14    41    42   ar
    15    42    43   ar
    16    43    44   ar
    17    23    24    1
    18    24    25    1
    19    24    27    1
    20    27    28    1
    21    28    30    1
    22    30    31    1
    23    31    32   ar
    24    32    33   ar
    25    33    34   ar
    26    34    36    1
    27    36    37    1
    28    34    35   ar
    29     7     8   ar
    30     8     9   ar
    31     9    11    1
    32    11    12    1
    33    12    13    1
    34    13    14    1
    35    14    15    1
    36    15    16    1
    37    16    17    2
    38    16    18    2
    39     9    10   ar
    40    10     5   ar
    41    44    39   ar
    42    35    31   ar
    43    16    11    1
    44    19    20    1
    45     3     4    1
    46    25    26    1
    47    28    29    1
@<TRIPOS>MOLECULE
*****
 44 47 0 0 0
SMALL
GASTEIGER

@<TRIPOS>ATOM
      1 C          62.1816   86.8466   11.8196 C.2     1  UNL1        0.2460
      2 O          63.0808   88.0144   11.5412 O.2     1  UNL1       -0.2701
      3 N          60.7618   86.8612   11.3358 N.am    1  UNL1       -0.2997
      4 H          60.1716   86.0947   11.5186 H       1  UNL1        0.1498
      5 C          63.8529   84.6762   14.6913 C.ar    1  UNL1        0.0461
      6 C          63.3324   85.8586   13.9291 C.ar    1  UNL1        0.0189
      7 C          62.7021   85.6641   12.5819 C.ar    1  UNL1        0.0559
      8 C          62.5924   84.2873   11.9969 C.ar    1  UNL1        0.0207
      9 C          63.1128   83.1049   12.7591 C.ar    1  UNL1        0.0698
     10 C          63.7431   83.2994   14.1063 C.ar    1  UNL1        0.0304
     11 N          63.0031   81.7280   12.1742 N.pl3   1  UNL1       -0.1943
     12 C          63.2682   81.5102   10.7140 C.3     1  UNL1        0.1155
     13 C          63.1584   80.1332   10.1290 C.3     1  UNL1        0.0252
     14 C          62.7836   78.9742   11.0043 C.3     1  UNL1        0.0292
     15 C          62.5186   79.1921   12.4646 C.3     1  UNL1        0.1727
     16 S          62.6283   80.5690   13.0495 S.O2    1  UNL1        0.0569
     17 O          62.6051   81.6770   14.0603 O.2     1  UNL1       -0.1543
     18 O          62.2454   79.7948   14.2759 O.2     1  UNL1       -0.1543
     19 N          64.4831   84.8707   16.0385 N.pl3   1  UNL1       -0.3326
     20 H          65.2500   84.3153   16.3080 H       1  UNL1        0.1468
     21 C          62.4761   85.9625   17.2755 C.3     1  UNL1        0.0229
     22 C          63.9449   85.9113   16.9752 C.3     1  UNL1        0.0871
     23 C          60.2413   88.0435   10.5736 C.3     1  UNL1        0.1043
     24 C          59.8310   89.2866   11.3061 C.3     1  UNL1        0.1443
     25 O          58.6754   89.2471   12.2616 O.3     1  UNL1       -0.3813
     26 H          58.3083   88.3497   12.2882 H       1  UNL1        0.2105
     27 C          60.5763   90.5691   11.0831 C.3     1  UNL1        0.1001
     28 N          61.8564   90.8304   11.8201 N.3     1  UNL1       -0.2916
     29 H          62.0987   89.9664   12.3049 H       1  UNL1        0.1236
     30 C          63.0801   91.2627   11.0679 C.3     1  UNL1        0.0989
     31 C          64.3326   91.6167   11.8133 C.ar    1  UNL1        0.0332
     32 C          65.4634   92.4523   11.2907 C.ar    1  UNL1        0.1187
     33 N          66.5040   92.5493   12.3667 N.ar    1  UNL1       -0.1680
     34 N          66.0163   91.7735   13.5544 N.ar    1  UNL1       -0.2497
     35 C          64.6744   91.1971   13.2123 C.ar    1  UNL1        0.0937
     36 C          66.7431   91.6039   14.8556 C.3     1  UNL1        0.1276
     37 C          66.7706   92.7256   15.8510 C.3     1  UNL1        0.0284
     38 C          60.1311   87.9829    9.0789 C.3     1  UNL1        0.0484
     39 C          60.7631   86.8502    8.3256 C.ar    1  UNL1       -0.0204
     40 C          62.2062   86.5103    8.5540 C.ar    1  UNL1       -0.0042
     41 C          62.8383   85.3776    7.8008 C.ar    1  UNL1       -0.0003
     42 C          62.0273   84.5848    6.8190 C.ar    1  UNL1       -0.0000
     43 C          60.5843   84.9247    6.5906 C.ar    1  UNL1       -0.0003
     44 C          59.9522   86.0574    7.3438 C.ar    1  UNL1       -0.0042
@<TRIPOS>BOND
     1    21    22    1
     2    22    19    1
     3    19     5    1
     4     5     6   ar
     5     6     7   ar
     6     7     1    1
     7     1     2    2
     8     1     3   am
     9     3    23    1
    10    23    38    1
    11    38    39    1
    12    39    40   ar
    13    40    41   ar
    14    41    42   ar
    15    42    43   ar
    16    43    44   ar
    17    23    24    1
    18    24    25    1
    19    24    27    1
    20    27    28    1
    21    28    30    1
    22    30    31    1
    23    31    32   ar
    24    32    33   ar
    25    33    34   ar
    26    34    36    1
    27    36    37    1
    28    34    35   ar
    29     7     8   ar
    30     8     9   ar
    31     9    11    1
    32    11    12    1
    33    12    13    1
    34    13    14    1
    35    14    15    1
    36    15    16    1
    37    16    17    2
    38    16    18    2
    39     9    10   ar
    40    10     5   ar
    41    44    39   ar
    42    35    31   ar
    43    16    11    1
    44    19    20    1
    45     3     4    1
    46    25    26    1
    47    28    29    1
