@<TRIPOS>MOLECULE
*****
 29 31 0 0 0
SMALL
GASTEIGER

@<TRIPOS>ATOM
      1 C          63.5859   87.2928   13.4090 C.ar    1  UNL1        0.0000
      2 C          62.7689   86.5753   12.3757 C.ar    1  UNL1       -0.0002
      3 C          62.4934   85.1082   12.5236 C.ar    1  UNL1       -0.0017
      4 C          63.0348   84.3587   13.7047 C.ar    1  UNL1        0.0070
      5 C          63.8518   85.0764   14.7380 C.ar    1  UNL1       -0.0017
      6 C          64.1273   86.5434   14.5901 C.ar    1  UNL1       -0.0002
      7 C          64.9393   90.9481   14.1555 C.ar    1  UNL1        0.0503
      8 C          64.4126   91.6939   12.9655 C.ar    1  UNL1        0.0147
      9 C          63.6104   90.9728   11.9232 C.ar    1  UNL1        0.0013
     10 C          63.3348   89.5058   12.0710 C.ar    1  UNL1        0.0001
     11 C          63.8615   88.7599   13.2611 C.ar    1  UNL1        0.0012
     12 C          64.6637   89.4811   14.3034 C.ar    1  UNL1        0.0147
     13 C          67.9757   92.7468   15.9707 C.3     1  UNL1        0.0949
     14 C          67.1734   92.0256   14.9284 C.2     1  UNL1        0.2266
     15 O          67.8032   91.6608   13.6168 O.2     1  UNL1       -0.2748
     16 N          65.7415   91.6693   15.1978 N.am    1  UNL1       -0.2839
     17 H          65.3282   91.9088   16.0587 H       1  UNL1        0.1549
     18 C          62.7593   82.8917   13.8526 C.3     1  UNL1        0.1410
     19 O          62.1717   83.1390   15.2104 O.3     1  UNL1       -0.3771
     20 H          62.2131   84.0867   15.4129 H       1  UNL1        0.2112
     21 C          63.3468   82.6445   12.4948 C.ar    1  UNL1        0.0825
     22 C          64.6954   83.0998   12.0214 C.ar    1  UNL1        0.1157
     23 N          64.8710   82.6352   10.6060 N.ar    1  UNL1       -0.2228
     24 C          63.6309   81.8928   10.2046 C.ar    1  UNL1        0.1749
     25 N          62.6889   81.8985   11.3719 N.ar    1  UNL1       -0.3361
     26 H          61.7957   81.4852   11.3968 H       1  UNL1        0.1673
     27 C          62.4837   81.4247   14.0005 C.3     1  UNL1        0.0340
     28 C          61.0709   80.9352   14.1194 C.3     1  UNL1        0.0031
     29 C          63.6211   80.4472   14.0296 C.3     1  UNL1        0.0031
@<TRIPOS>BOND
     1    13    14    1
     2    14    15    2
     3    14    16   am
     4    16     7    1
     5     7     8   ar
     6     8     9   ar
     7     9    10   ar
     8    10    11   ar
     9    11     1    1
    10     1     2   ar
    11     2     3   ar
    12     3     4   ar
    13     4    18    1
    14    18    19    1
    15    18    21    1
    16    21    22   ar
    17    22    23   ar
    18    23    24   ar
    19    24    25   ar
    20    18    27    1
    21    27    28    1
    22    27    29    1
    23     4     5   ar
    24     5     6   ar
    25    11    12   ar
    26    12     7   ar
    27     6     1   ar
    28    25    21   ar
    29    16    17    1
    30    19    20    1
    31    25    26    1
@<TRIPOS>MOLECULE
*****
 29 31 0 0 0
SMALL
GASTEIGER

@<TRIPOS>ATOM
      1 C          61.9227   88.8856   10.4361 C.ar    1  UNL1        0.0000
      2 C          62.5612   88.0049   11.4688 C.ar    1  UNL1       -0.0002
      3 C          63.4142   88.6081   12.5452 C.ar    1  UNL1       -0.0017
      4 C          63.6286   90.0921   12.5888 C.ar    1  UNL1        0.0070
      5 C          62.9900   90.9728   11.5559 C.ar    1  UNL1       -0.0017
      6 C          62.1371   90.3695   10.4796 C.ar    1  UNL1       -0.0002
      7 C          59.2635   88.5415    7.5102 C.ar    1  UNL1        0.0503
      8 C          59.3637   87.0760    7.2069 C.ar    1  UNL1        0.0147
      9 C          60.3170   86.2136    7.9800 C.ar    1  UNL1        0.0013
     10 C          61.1699   86.8168    9.0564 C.ar    1  UNL1        0.0001
     11 C          61.0697   88.2823    9.3596 C.ar    1  UNL1        0.0012
     12 C          60.1164   89.1447    8.5866 C.ar    1  UNL1        0.0147
     13 C          57.8797   91.2360    4.9461 C.3     1  UNL1        0.0949
     14 C          58.8329   90.3736    5.7192 C.2     1  UNL1        0.2266
     15 O          60.3089   90.4810    5.4742 O.2     1  UNL1       -0.2748
     16 N          58.3102   89.4039    6.7372 N.am    1  UNL1       -0.2839
     17 H          57.3415   89.3335    6.8980 H       1  UNL1        0.1549
     18 C          64.4815   90.6953   13.6651 C.3     1  UNL1        0.1410
     19 O          65.0273   91.6844   12.6783 O.3     1  UNL1       -0.3771
     20 H          64.6249   91.5297   11.8093 H       1  UNL1        0.2112
     21 C          63.9358   89.7063   14.6519 C.ar    1  UNL1        0.0825
     22 C          64.4971   88.3451   14.9383 C.ar    1  UNL1        0.1157
     23 N          63.6410   87.7023   15.9891 N.ar    1  UNL1       -0.2228
     24 C          62.5506   88.6664   16.3522 C.ar    1  UNL1        0.1749
     25 N          62.7328   89.9049   15.5258 N.ar    1  UNL1       -0.3361
     26 H          62.1628   90.7072   15.5523 H       1  UNL1        0.1673
     27 C          65.3345   91.2986   14.7414 C.3     1  UNL1        0.0340
     28 C          66.8279   91.3029   14.6008 C.3     1  UNL1        0.0031
     29 C          64.6940   91.8976   15.9585 C.3     1  UNL1        0.0031
@<TRIPOS>BOND
     1    13    14    1
     2    14    15    2
     3    14    16   am
     4    16     7    1
     5     7     8   ar
     6     8     9   ar
     7     9    10   ar
     8    10    11   ar
     9    11     1    1
    10     1     2   ar
    11     2     3   ar
    12     3     4   ar
    13     4    18    1
    14    18    19    1
    15    18    21    1
    16    21    22   ar
    17    22    23   ar
    18    23    24   ar
    19    24    25   ar
    20    18    27    1
    21    27    28    1
    22    27    29    1
    23     4     5   ar
    24     5     6   ar
    25    11    12   ar
    26    12     7   ar
    27     6     1   ar
    28    25    21   ar
    29    16    17    1
    30    19    20    1
    31    25    26    1
@<TRIPOS>MOLECULE
*****
 29 31 0 0 0
SMALL
GASTEIGER

@<TRIPOS>ATOM
      1 C          62.5362   89.5594   10.5494 C.ar    1  UNL1        0.0000
      2 C          62.9198   89.0203   11.8956 C.ar    1  UNL1       -0.0002
      3 C          63.8021   89.8260   12.8026 C.ar    1  UNL1       -0.0017
      4 C          64.3007   91.1708   12.3634 C.ar    1  UNL1        0.0070
      5 C          63.9170   91.7099   11.0171 C.ar    1  UNL1       -0.0017
      6 C          63.0348   90.9042   10.1102 C.ar    1  UNL1       -0.0002
      7 C          59.6909   88.6246    7.9455 C.ar    1  UNL1        0.0503
      8 C          59.8895   87.1425    7.8285 C.ar    1  UNL1        0.0147
      9 C          60.9704   86.4660    8.6185 C.ar    1  UNL1        0.0013
     10 C          61.8526   87.2716    9.5255 C.ar    1  UNL1        0.0001
     11 C          61.6540   88.7537    9.6424 C.ar    1  UNL1        0.0012
     12 C          60.5731   89.4302    8.8525 C.ar    1  UNL1        0.0147
     13 C          57.8866   90.8429    5.1935 C.3     1  UNL1        0.0949
     14 C          58.9674   90.1664    5.9835 C.2     1  UNL1        0.2266
     15 O          60.4056   90.3550    5.6014 O.2     1  UNL1       -0.2748
     16 N          58.6101   89.3012    7.1555 N.am    1  UNL1       -0.2839
     17 H          57.6661   89.1774    7.4063 H       1  UNL1        0.1549
     18 C          65.1829   91.9765   13.2703 C.3     1  UNL1        0.1410
     19 O          64.3635   91.5453   14.4504 O.3     1  UNL1       -0.3771
     20 H          63.6490   90.9612   14.1518 H       1  UNL1        0.2112
     21 C          66.0023   92.4076   12.0902 C.ar    1  UNL1        0.0825
     22 C          67.3480   91.8673   11.7065 C.ar    1  UNL1        0.1157
     23 N          67.7973   92.5806   10.4657 N.ar    1  UNL1       -0.2228
     24 C          66.7292   93.5617   10.0825 C.ar    1  UNL1        0.1749
     25 N          65.6199   93.4547   11.0865 N.ar    1  UNL1       -0.3361
     26 H          64.7870   93.9797   11.0866 H       1  UNL1        0.1673
     27 C          66.0651   92.7821   14.1772 C.3     1  UNL1        0.0340
     28 C          66.5361   92.1998   15.4768 C.3     1  UNL1        0.0031
     29 C          66.4763   94.1703   13.7845 C.3     1  UNL1        0.0031
@<TRIPOS>BOND
     1    13    14    1
     2    14    15    2
     3    14    16   am
     4    16     7    1
     5     7     8   ar
     6     8     9   ar
     7     9    10   ar
     8    10    11   ar
     9    11     1    1
    10     1     2   ar
    11     2     3   ar
    12     3     4   ar
    13     4    18    1
    14    18    19    1
    15    18    21    1
    16    21    22   ar
    17    22    23   ar
    18    23    24   ar
    19    24    25   ar
    20    18    27    1
    21    27    28    1
    22    27    29    1
    23     4     5   ar
    24     5     6   ar
    25    11    12   ar
    26    12     7   ar
    27     6     1   ar
    28    25    21   ar
    29    16    17    1
    30    19    20    1
    31    25    26    1
@<TRIPOS>MOLECULE
*****
 29 31 0 0 0
SMALL
GASTEIGER

@<TRIPOS>ATOM
      1 C          64.2865   89.1364   14.6511 C.ar    1  UNL1        0.0000
      2 C          65.3421   90.0548   15.1913 C.ar    1  UNL1       -0.0002
      3 C          65.8158   91.2179   14.3708 C.ar    1  UNL1       -0.0017
      4 C          65.2338   91.4623   13.0101 C.ar    1  UNL1        0.0070
      5 C          64.1781   90.5437   12.4699 C.ar    1  UNL1       -0.0017
      6 C          63.7044   89.3808   13.2904 C.ar    1  UNL1       -0.0002
      7 C          63.6804   85.4103   15.8756 C.ar    1  UNL1        0.0503
      8 C          62.8655   85.6474   17.1123 C.ar    1  UNL1        0.0147
      9 C          62.5242   87.0474   17.5287 C.ar    1  UNL1        0.0013
     10 C          62.9979   88.2104   16.7083 C.ar    1  UNL1        0.0001
     11 C          63.8128   87.9733   15.4715 C.ar    1  UNL1        0.0012
     12 C          64.1541   86.5733   15.0552 C.ar    1  UNL1        0.0147
     13 C          63.7183   82.0107   13.8284 C.3     1  UNL1        0.0949
     14 C          63.3771   83.4107   14.2448 C.2     1  UNL1        0.2266
     15 O          62.3910   84.2113   13.4466 O.2     1  UNL1       -0.2748
     16 N          64.0217   84.0102   15.4592 N.am    1  UNL1       -0.2839
     17 H          64.6688   83.4848   15.9830 H       1  UNL1        0.1549
     18 C          65.7074   92.6252   12.1896 C.3     1  UNL1        0.1410
     19 O          64.6493   92.3346   11.1669 O.3     1  UNL1       -0.3771
     20 H          64.1325   91.5630   11.4467 H       1  UNL1        0.2112
     21 C          66.7655   92.9158   13.2123 C.ar    1  UNL1        0.0825
     22 C          68.1449   92.3275   13.2455 C.ar    1  UNL1        0.1157
     23 N          68.8620   92.8939   14.4352 N.ar    1  UNL1       -0.2228
     24 C          67.9256   93.8322   15.1372 C.ar    1  UNL1        0.1749
     25 N          66.6300   93.8458   14.3815 N.ar    1  UNL1       -0.3361
     26 H          65.8310   94.3726   14.6123 H       1  UNL1        0.1673
     27 C          66.1810   93.7882   11.3692 C.3     1  UNL1        0.0340
     28 C          66.7996   93.5538   10.0229 C.3     1  UNL1        0.0031
     29 C          66.0361   95.1855   11.8950 C.3     1  UNL1        0.0031
@<TRIPOS>BOND
     1    13    14    1
     2    14    15    2
     3    14    16   am
     4    16     7    1
     5     7     8   ar
     6     8     9   ar
     7     9    10   ar
     8    10    11   ar
     9    11     1    1
    10     1     2   ar
    11     2     3   ar
    12     3     4   ar
    13     4    18    1
    14    18    19    1
    15    18    21    1
    16    21    22   ar
    17    22    23   ar
    18    23    24   ar
    19    24    25   ar
    20    18    27    1
    21    27    28    1
    22    27    29    1
    23     4     5   ar
    24     5     6   ar
    25    11    12   ar
    26    12     7   ar
    27     6     1   ar
    28    25    21   ar
    29    16    17    1
    30    19    20    1
    31    25    26    1
@<TRIPOS>MOLECULE
*****
 29 31 0 0 0
SMALL
GASTEIGER

@<TRIPOS>ATOM
      1 C          62.9473   89.5028   11.7302 C.ar    1  UNL1        0.0000
      2 C          63.2610   90.8881   11.2479 C.ar    1  UNL1       -0.0002
      3 C          64.1919   91.7631   12.0339 C.ar    1  UNL1       -0.0017
      4 C          64.8091   91.2528   13.3023 C.ar    1  UNL1        0.0070
      5 C          64.4953   89.8675   13.7845 C.ar    1  UNL1       -0.0017
      6 C          63.5645   88.9925   12.9985 C.ar    1  UNL1       -0.0002
      7 C          61.6362   86.7786    9.1593 C.ar    1  UNL1        0.0503
      8 C          60.1547   86.8778    9.3720 C.ar    1  UNL1        0.0147
      9 C          59.6041   87.8520   10.3709 C.ar    1  UNL1        0.0013
     10 C          60.5349   88.7270   11.1569 C.ar    1  UNL1        0.0001
     11 C          62.0164   88.6278   10.9441 C.ar    1  UNL1        0.0012
     12 C          62.5670   87.6536    9.9453 C.ar    1  UNL1        0.0147
     13 C          61.8464   84.2643    6.0959 C.3     1  UNL1        0.0949
     14 C          61.2958   85.2386    7.0947 C.2     1  UNL1        0.2266
     15 O          59.8539   85.6470    7.0277 O.2     1  UNL1       -0.2748
     16 N          62.1868   85.8043    8.1604 N.am    1  UNL1       -0.2839
     17 H          63.1331   85.5362    8.2044 H       1  UNL1        0.1549
     18 C          65.7399   92.1277   14.0883 C.3     1  UNL1        0.1410
     19 O          64.8185   92.0471   15.2692 O.3     1  UNL1       -0.3771
     20 H          64.0524   91.4963   15.0445 H       1  UNL1        0.2112
     21 C          66.6613   92.2083   12.9075 C.ar    1  UNL1        0.0825
     22 C          68.0328   91.6075   12.8166 C.ar    1  UNL1        0.1157
     23 N          68.5921   91.9317   11.4630 N.ar    1  UNL1       -0.2228
     24 C          67.5664   92.7329   10.7173 C.ar    1  UNL1        0.1749
     25 N          66.3731   92.9039   11.6100 N.ar    1  UNL1       -0.3361
     26 H          65.5460   93.3876   11.3841 H       1  UNL1        0.1673
     27 C          66.6708   93.0027   14.8744 C.3     1  UNL1        0.0340
     28 C          67.2729   92.4994   16.1527 C.3     1  UNL1        0.0031
     29 C          66.9996   94.3810   14.3821 C.3     1  UNL1        0.0031
@<TRIPOS>BOND
     1    13    14    1
     2    14    15    2
     3    14    16   am
     4    16     7    1
     5     7     8   ar
     6     8     9   ar
     7     9    10   ar
     8    10    11   ar
     9    11     1    1
    10     1     2   ar
    11     2     3   ar
    12     3     4   ar
    13     4    18    1
    14    18    19    1
    15    18    21    1
    16    21    22   ar
    17    22    23   ar
    18    23    24   ar
    19    24    25   ar
    20    18    27    1
    21    27    28    1
    22    27    29    1
    23     4     5   ar
    24     5     6   ar
    25    11    12   ar
    26    12     7   ar
    27     6     1   ar
    28    25    21   ar
    29    16    17    1
    30    19    20    1
    31    25    26    1
@<TRIPOS>MOLECULE
*****
 29 31 0 0 0
SMALL
GASTEIGER

@<TRIPOS>ATOM
      1 C          63.1086   89.2645   12.0033 C.ar    1  UNL1        0.0000
      2 C          63.7532   88.8994   13.3075 C.ar    1  UNL1       -0.0002
      3 C          64.6298   89.8905   14.0143 C.ar    1  UNL1       -0.0017
      4 C          64.8617   91.2466   13.4168 C.ar    1  UNL1        0.0070
      5 C          64.2170   91.6117   12.1124 C.ar    1  UNL1       -0.0017
      6 C          63.3405   90.6206   11.4057 C.ar    1  UNL1       -0.0002
      7 C          61.7343   85.8311   10.5633 C.ar    1  UNL1        0.0503
      8 C          60.4792   86.2912    9.8830 C.ar    1  UNL1        0.0147
      9 C          60.1005   87.7424    9.9094 C.ar    1  UNL1        0.0013
     10 C          60.9769   88.7335   10.6162 C.ar    1  UNL1        0.0001
     11 C          62.2321   88.2734   11.2965 C.ar    1  UNL1        0.0012
     12 C          62.6108   86.8222   11.2700 C.ar    1  UNL1        0.0147
     13 C          62.9048   82.2383   11.7763 C.3     1  UNL1        0.0949
     14 C          62.5261   83.6894   11.8027 C.2     1  UNL1        0.2266
     15 O          62.5605   84.4501   13.0951 O.2     1  UNL1       -0.2748
     16 N          62.1130   84.3800   10.5368 N.am    1  UNL1       -0.2839
     17 H          62.0905   83.8807    9.6886 H       1  UNL1        0.1549
     18 C          65.7382   92.2377   14.1235 C.3     1  UNL1        0.1410
     19 O          64.8541   92.1574   15.3326 O.3     1  UNL1       -0.3771
     20 H          64.1291   91.5358   15.1623 H       1  UNL1        0.2112
     21 C          66.6222   92.3181   12.9144 C.ar    1  UNL1        0.0825
     22 C          67.9733   91.6835   12.7663 C.ar    1  UNL1        0.1157
     23 N          68.4966   92.0203   11.4014 N.ar    1  UNL1       -0.2228
     24 C          67.4688   92.8631   10.7059 C.ar    1  UNL1        0.1749
     25 N          66.3104   93.0471   11.6410 N.ar    1  UNL1       -0.3361
     26 H          65.4896   93.5568   11.4521 H       1  UNL1        0.1673
     27 C          66.6146   93.2288   14.8302 C.3     1  UNL1        0.0340
     28 C          67.2025   92.8901   16.1680 C.3     1  UNL1        0.0031
     29 C          66.9033   94.5587   14.1991 C.3     1  UNL1        0.0031
@<TRIPOS>BOND
     1    13    14    1
     2    14    15    2
     3    14    16   am
     4    16     7    1
     5     7     8   ar
     6     8     9   ar
     7     9    10   ar
     8    10    11   ar
     9    11     1    1
    10     1     2   ar
    11     2     3   ar
    12     3     4   ar
    13     4    18    1
    14    18    19    1
    15    18    21    1
    16    21    22   ar
    17    22    23   ar
    18    23    24   ar
    19    24    25   ar
    20    18    27    1
    21    27    28    1
    22    27    29    1
    23     4     5   ar
    24     5     6   ar
    25    11    12   ar
    26    12     7   ar
    27     6     1   ar
    28    25    21   ar
    29    16    17    1
    30    19    20    1
    31    25    26    1
@<TRIPOS>MOLECULE
*****
 29 31 0 0 0
SMALL
GASTEIGER

@<TRIPOS>ATOM
      1 C          63.2091   88.9879   11.9264 C.ar    1  UNL1        0.0000
      2 C          63.3608   90.3646   11.3506 C.ar    1  UNL1       -0.0002
      3 C          64.1605   91.4004   12.0839 C.ar    1  UNL1       -0.0017
      4 C          64.8086   91.0593   13.3930 C.ar    1  UNL1        0.0070
      5 C          64.6569   89.6825   13.9688 C.ar    1  UNL1       -0.0017
      6 C          63.8571   88.6468   13.2355 C.ar    1  UNL1       -0.0002
      7 C          60.8827   87.2834    9.2001 C.ar    1  UNL1        0.0503
      8 C          60.8099   85.8808    9.7265 C.ar    1  UNL1        0.0147
      9 C          61.5368   85.5138   10.9862 C.ar    1  UNL1        0.0013
     10 C          62.3365   86.5495   11.7195 C.ar    1  UNL1        0.0001
     11 C          62.4093   87.9521   11.1931 C.ar    1  UNL1        0.0012
     12 C          61.6824   88.3191    9.9334 C.ar    1  UNL1        0.0147
     13 C          58.9694   89.4287    6.4639 C.3     1  UNL1        0.0949
     14 C          59.6963   89.0617    7.7236 C.2     1  UNL1        0.2266
     15 O          59.9637   90.1061    8.7666 O.2     1  UNL1       -0.2748
     16 N          60.1558   87.6504    7.9403 N.am    1  UNL1       -0.2839
     17 H          59.9803   86.9650    7.2558 H       1  UNL1        0.1549
     18 C          65.6083   92.0950   14.1263 C.3     1  UNL1        0.1410
     19 O          64.6558   92.0121   15.2821 O.3     1  UNL1       -0.3771
     20 H          63.9629   91.3628   15.0842 H       1  UNL1        0.2112
     21 C          66.5608   92.1779   12.9706 C.ar    1  UNL1        0.0825
     22 C          67.9544   91.6242   12.9351 C.ar    1  UNL1        0.1157
     23 N          68.5419   91.9331   11.5898 N.ar    1  UNL1       -0.2228
     24 C          67.5112   92.6777   10.7939 C.ar    1  UNL1        0.1749
     25 N          66.2869   92.8289   11.6472 N.ar    1  UNL1       -0.3361
     26 H          65.4503   93.2769   11.3848 H       1  UNL1        0.1673
     27 C          66.4080   93.1306   14.8596 C.3     1  UNL1        0.0340
     28 C          66.8903   92.8576   16.2535 C.3     1  UNL1        0.0031
     29 C          66.7255   94.4395   14.1991 C.3     1  UNL1        0.0031
@<TRIPOS>BOND
     1    13    14    1
     2    14    15    2
     3    14    16   am
     4    16     7    1
     5     7     8   ar
     6     8     9   ar
     7     9    10   ar
     8    10    11   ar
     9    11     1    1
    10     1     2   ar
    11     2     3   ar
    12     3     4   ar
    13     4    18    1
    14    18    19    1
    15    18    21    1
    16    21    22   ar
    17    22    23   ar
    18    23    24   ar
    19    24    25   ar
    20    18    27    1
    21    27    28    1
    22    27    29    1
    23     4     5   ar
    24     5     6   ar
    25    11    12   ar
    26    12     7   ar
    27     6     1   ar
    28    25    21   ar
    29    16    17    1
    30    19    20    1
    31    25    26    1
@<TRIPOS>MOLECULE
*****
 29 31 0 0 0
SMALL
GASTEIGER

@<TRIPOS>ATOM
      1 C          63.2572   90.2431   11.2125 C.ar    1  UNL1        0.0000
      2 C          63.9558   90.6816   12.4654 C.ar    1  UNL1       -0.0002
      3 C          64.7611   91.9472   12.4714 C.ar    1  UNL1       -0.0017
      4 C          64.8678   92.7741   11.2244 C.ar    1  UNL1        0.0070
      5 C          64.1692   92.3355    9.9715 C.ar    1  UNL1       -0.0017
      6 C          63.3639   91.0700    9.9656 C.ar    1  UNL1       -0.0002
      7 C          62.2146   86.4589   11.7982 C.ar    1  UNL1        0.0503
      8 C          60.8414   86.4466   11.1947 C.ar    1  UNL1        0.0147
      9 C          60.2736   87.6997   10.5970 C.ar    1  UNL1        0.0013
     10 C          61.0788   88.9652   10.6030 C.ar    1  UNL1        0.0001
     11 C          62.4519   88.9775   11.2066 C.ar    1  UNL1        0.0012
     12 C          63.0198   87.7244   11.8042 C.ar    1  UNL1        0.0147
     13 C          64.1801   84.0258   14.2409 C.3     1  UNL1        0.0949
     14 C          63.6122   85.2789   13.6433 C.2     1  UNL1        0.2266
     15 O          63.8741   86.6053   14.2932 O.2     1  UNL1       -0.2748
     16 N          62.7824   85.2058   12.3959 N.am    1  UNL1       -0.2839
     17 H          62.6106   84.3353   11.9693 H       1  UNL1        0.1549
     18 C          65.6731   94.0396   11.2304 C.3     1  UNL1        0.1410
     19 O          64.7030   94.6614   10.2701 O.3     1  UNL1       -0.3771
     20 H          64.0029   94.0238   10.0594 H       1  UNL1        0.2112
     21 C          66.6432   93.4178   12.1907 C.ar    1  UNL1        0.0825
     22 C          66.7142   93.6800   13.6659 C.ar    1  UNL1        0.1157
     23 N          67.8276   92.8488   14.2314 N.ar    1  UNL1       -0.2228
     24 C          68.4446   92.0729   13.1056 C.ar    1  UNL1        0.1749
     25 N          67.7126   92.4245   11.8444 N.ar    1  UNL1       -0.3361
     26 H          67.9010   92.0663   10.9470 H       1  UNL1        0.1673
     27 C          66.4783   95.3050   11.2363 C.3     1  UNL1        0.0340
     28 C          67.4721   95.5668   10.1436 C.3     1  UNL1        0.0031
     29 C          66.2898   96.3089   12.3349 C.3     1  UNL1        0.0031
@<TRIPOS>BOND
     1    13    14    1
     2    14    15    2
     3    14    16   am
     4    16     7    1
     5     7     8   ar
     6     8     9   ar
     7     9    10   ar
     8    10    11   ar
     9    11     1    1
    10     1     2   ar
    11     2     3   ar
    12     3     4   ar
    13     4    18    1
    14    18    19    1
    15    18    21    1
    16    21    22   ar
    17    22    23   ar
    18    23    24   ar
    19    24    25   ar
    20    18    27    1
    21    27    28    1
    22    27    29    1
    23     4     5   ar
    24     5     6   ar
    25    11    12   ar
    26    12     7   ar
    27     6     1   ar
    28    25    21   ar
    29    16    17    1
    30    19    20    1
    31    25    26    1
@<TRIPOS>MOLECULE
*****
 29 31 0 0 0
SMALL
GASTEIGER

@<TRIPOS>ATOM
      1 C          63.2997   88.1164   12.5994 C.ar    1  UNL1        0.0000
      2 C          64.0046   87.7376   13.8681 C.ar    1  UNL1       -0.0002
      3 C          64.5201   88.8051   14.7872 C.ar    1  UNL1       -0.0017
      4 C          64.3308   90.2515   14.4375 C.ar    1  UNL1        0.0070
      5 C          63.6259   90.6303   13.1687 C.ar    1  UNL1       -0.0017
      6 C          63.1104   89.5628   12.2497 C.ar    1  UNL1       -0.0002
      7 C          62.5825   84.5404   11.0349 C.ar    1  UNL1        0.0503
      8 C          61.7530   84.9139    9.8423 C.ar    1  UNL1        0.0147
      9 C          61.4391   86.3549    9.5687 C.ar    1  UNL1        0.0013
     10 C          61.9547   87.4224   10.4877 C.ar    1  UNL1        0.0001
     11 C          62.7841   87.0489   11.6803 C.ar    1  UNL1        0.0012
     12 C          63.0980   85.6079   11.9539 C.ar    1  UNL1        0.0147
     13 C          63.0704   81.1110   12.9717 C.3     1  UNL1        0.0949
     14 C          62.7565   82.5520   12.6981 C.2     1  UNL1        0.2266
     15 O          62.3027   83.4458   13.8141 O.2     1  UNL1       -0.2748
     16 N          62.8964   83.0993   11.3086 N.am    1  UNL1       -0.2839
     17 H          63.1943   82.5128   10.5761 H       1  UNL1        0.1549
     18 C          64.8464   91.3190   15.3565 C.3     1  UNL1        0.1410
     19 O          63.8456   90.9079   16.3954 O.3     1  UNL1       -0.3771
     20 H          63.3155   90.1684   16.0590 H       1  UNL1        0.2112
     21 C          65.8472   91.7300   14.3176 C.ar    1  UNL1        0.0825
     22 C          67.2321   91.1760   14.1595 C.ar    1  UNL1        0.1157
     23 N          67.8797   91.8709   12.9985 N.ar    1  UNL1       -0.2228
     24 C          66.8949   92.8544   12.4390 C.ar    1  UNL1        0.1749
     25 N          65.6388   92.7673   13.2542 N.ar    1  UNL1       -0.3361
     26 H          64.8211   93.2979   13.1157 H       1  UNL1        0.1673
     27 C          65.3619   92.3865   16.2755 C.3     1  UNL1        0.0340
     28 C          64.4560   92.9888   17.3081 C.3     1  UNL1        0.0031
     29 C          66.7835   92.8516   16.1619 C.3     1  UNL1        0.0031
@<TRIPOS>BOND
     1    13    14    1
     2    14    15    2
     3    14    16   am
     4    16     7    1
     5     7     8   ar
     6     8     9   ar
     7     9    10   ar
     8    10    11   ar
     9    11     1    1
    10     1     2   ar
    11     2     3   ar
    12     3     4   ar
    13     4    18    1
    14    18    19    1
    15    18    21    1
    16    21    22   ar
    17    22    23   ar
    18    23    24   ar
    19    24    25   ar
    20    18    27    1
    21    27    28    1
    22    27    29    1
    23     4     5   ar
    24     5     6   ar
    25    11    12   ar
    26    12     7   ar
    27     6     1   ar
    28    25    21   ar
    29    16    17    1
    30    19    20    1
    31    25    26    1
