@<TRIPOS>MOLECULE
*****
 29 32 0 0 0
SMALL
GASTEIGER

@<TRIPOS>ATOM
      1 C          63.8743   90.8861   12.4408 C.ar    1  UNL1        0.0926
      2 C          64.9443   91.8577   12.0396 C.ar    1  UNL1        0.0467
      3 C          65.7442   92.5686   13.0906 C.ar    1  UNL1        0.1648
      4 C          65.4740   92.3080   14.5429 C.ar    1  UNL1        0.1395
      5 N          64.4040   91.3365   14.9441 N.ar    1  UNL1       -0.2060
      6 N          63.9152   90.8796   16.2867 N.ar    1  UNL1       -0.1408
      7 C          62.8133   89.8863   16.0653 C.ar    1  UNL1        0.2213
      8 N          62.6210   89.7292   14.5860 N.ar    1  UNL1       -0.2033
      9 C          63.6041   90.6255   13.8931 C.ar    1  UNL1        0.1702
     10 O          62.7990   90.8448   10.0760 O.2     1  UNL1       -0.2697
     11 C          63.0744   90.1751   11.3897 C.2     1  UNL1        0.2536
     12 N          62.5499   88.7946   11.6523 N.am    1  UNL1       -0.2657
     13 H          62.7307   88.3551   12.5145 H       1  UNL1        0.1566
     14 C          61.7501   88.0837   10.6012 C.ar    1  UNL1        0.1345
     15 C          62.3404   86.9118    9.8743 C.ar    1  UNL1        0.0368
     16 C          61.5406   86.2009    8.8232 C.ar    1  UNL1        0.0341
     17 C          60.1505   86.6618    8.4989 C.ar    1  UNL1        0.1593
     18 F          59.3507   85.9509    7.4478 F       1  UNL1       -0.2025
     19 C          59.5602   87.8337    9.2258 C.ar    1  UNL1        0.1298
     20 N          60.3600   88.5445   10.2769 N.ar    1  UNL1       -0.2267
     21 O          66.8143   93.5403   12.6894 O.3     1  UNL1       -0.4503
     22 C          66.7051   94.2819   11.3901 C.ar    1  UNL1        0.1669
     23 C          65.9404   95.5705   11.3240 C.ar    1  UNL1        0.1388
     24 N          65.8312   96.3121   10.0247 N.ar    1  UNL1       -0.2113
     25 C          66.4868   95.7650    8.7915 C.ar    1  UNL1        0.2501
     26 F          66.3777   96.5066    7.4922 F       1  UNL1       -0.1808
     27 C          67.2516   94.4763    8.8576 C.ar    1  UNL1        0.1888
     28 F          67.9073   93.9291    7.6244 F       1  UNL1       -0.2000
     29 C          67.3608   93.7348   10.1569 C.ar    1  UNL1        0.0727
@<TRIPOS>BOND
     1    10    11    2
     2    11    12   am
     3    12    14    1
     4    14    15   ar
     5    15    16   ar
     6    16    17   ar
     7    17    18    1
     8    17    19   ar
     9    19    20   ar
    10    11     1    1
    11     1     2   ar
    12     2     3   ar
    13     3    21    1
    14    21    22    1
    15    22    23   ar
    16    23    24   ar
    17    24    25   ar
    18    25    26    1
    19    25    27   ar
    20    27    28    1
    21    27    29   ar
    22     3     4   ar
    23     4     5   ar
    24     5     6   ar
    25     6     7   ar
    26     7     8   ar
    27     8     9   ar
    28    20    14   ar
    29     9     1   ar
    30    29    22   ar
    31     9     5   ar
    32    12    13    1
@<TRIPOS>MOLECULE
*****
 29 32 0 0 0
SMALL
GASTEIGER

@<TRIPOS>ATOM
      1 C          62.7730   88.1320   11.9896 C.ar    1  UNL1        0.0926
      2 C          63.4092   89.3274   12.6347 C.ar    1  UNL1        0.0467
      3 C          63.1579   90.6996   12.0836 C.ar    1  UNL1        0.1648
      4 C          62.2703   90.8765   10.8873 C.ar    1  UNL1        0.1395
      5 N          61.6341   89.6811   10.2422 N.ar    1  UNL1       -0.2060
      6 N          60.7198   89.5459    9.0609 N.ar    1  UNL1       -0.1408
      7 C          60.4060   88.0900    8.8819 C.ar    1  UNL1        0.2213
      8 N          61.1264   87.3255    9.9526 N.ar    1  UNL1       -0.2033
      9 C          61.8854   88.3088   10.7934 C.ar    1  UNL1        0.1702
     10 O          63.9675   86.5752   13.6926 O.2     1  UNL1       -0.2697
     11 C          63.0243   86.7597   12.5408 C.2     1  UNL1        0.2536
     12 N          62.3325   85.5720   11.9402 N.am    1  UNL1       -0.2657
     13 H          61.7135   85.6931   11.1843 H       1  UNL1        0.1566
     14 C          62.5839   84.1997   12.4915 C.ar    1  UNL1        0.1345
     15 C          63.0236   83.0938   11.5785 C.ar    1  UNL1        0.0368
     16 C          63.2750   81.7216   12.1296 C.ar    1  UNL1        0.0341
     17 C          63.0867   81.4552   13.5937 C.ar    1  UNL1        0.1593
     18 F          63.3380   80.0831   14.1448 F       1  UNL1       -0.2025
     19 C          62.6469   82.5613   14.5067 C.ar    1  UNL1        0.1298
     20 N          62.3955   83.9334   13.9555 N.ar    1  UNL1       -0.2267
     21 O          63.7941   91.8951   12.7288 O.3     1  UNL1       -0.4503
     22 C          65.2797   91.9357   12.9324 C.ar    1  UNL1        0.1669
     23 C          66.1836   92.2967   11.7910 C.ar    1  UNL1        0.1388
     24 N          67.6691   92.3372   11.9946 N.ar    1  UNL1       -0.2113
     25 C          68.2509   92.0168   13.3396 C.ar    1  UNL1        0.2501
     26 F          69.7364   92.0573   13.5433 F       1  UNL1       -0.1808
     27 C          67.3470   91.6557   14.4809 C.ar    1  UNL1        0.1888
     28 F          67.9286   91.3352   15.8260 F       1  UNL1       -0.2000
     29 C          65.8614   91.6152   14.2773 C.ar    1  UNL1        0.0727
@<TRIPOS>BOND
     1    10    11    2
     2    11    12   am
     3    12    14    1
     4    14    15   ar
     5    15    16   ar
     6    16    17   ar
     7    17    18    1
     8    17    19   ar
     9    19    20   ar
    10    11     1    1
    11     1     2   ar
    12     2     3   ar
    13     3    21    1
    14    21    22    1
    15    22    23   ar
    16    23    24   ar
    17    24    25   ar
    18    25    26    1
    19    25    27   ar
    20    27    28    1
    21    27    29   ar
    22     3     4   ar
    23     4     5   ar
    24     5     6   ar
    25     6     7   ar
    26     7     8   ar
    27     8     9   ar
    28    20    14   ar
    29     9     1   ar
    30    29    22   ar
    31     9     5   ar
    32    12    13    1
@<TRIPOS>MOLECULE
*****
 29 32 0 0 0
SMALL
GASTEIGER

@<TRIPOS>ATOM
      1 C          63.4195   88.1012   13.0704 C.ar    1  UNL1        0.0926
      2 C          63.9238   89.0317   14.1333 C.ar    1  UNL1        0.0467
      3 C          63.8424   90.5157   13.9311 C.ar    1  UNL1        0.1648
      4 C          63.2565   91.0694   12.6661 C.ar    1  UNL1        0.1395
      5 N          62.7521   90.1389   11.6032 N.ar    1  UNL1       -0.2060
      6 N          62.1283   90.3905   10.2625 N.ar    1  UNL1       -0.1408
      7 C          61.8242   89.0620    9.6361 C.ar    1  UNL1        0.2213
      8 N          62.2601   87.9892   10.5896 N.ar    1  UNL1       -0.2033
      9 C          62.8336   88.6548   11.8054 C.ar    1  UNL1        0.1702
     10 O          64.5212   86.0428   14.2104 O.2     1  UNL1       -0.2697
     11 C          63.5010   86.6171   13.2726 C.2     1  UNL1        0.2536
     12 N          62.5623   85.7073   12.5369 N.am    1  UNL1       -0.2657
     13 H          61.8927   86.0842   11.9214 H       1  UNL1        0.1566
     14 C          62.6439   84.2232   12.7391 C.ar    1  UNL1        0.1345
     15 C          63.0192   83.3298   11.5941 C.ar    1  UNL1        0.0368
     16 C          63.1007   81.8458   11.7963 C.ar    1  UNL1        0.0341
     17 C          62.8070   81.2550   13.1434 C.ar    1  UNL1        0.1593
     18 F          62.8886   79.7711   13.3456 F       1  UNL1       -0.2025
     19 C          62.4317   82.1485   14.2884 C.ar    1  UNL1        0.1298
     20 N          62.3502   83.6325   14.0863 N.ar    1  UNL1       -0.2267
     21 O          64.3468   91.4463   14.9941 O.3     1  UNL1       -0.4503
     22 C          65.7783   91.8943   14.9810 C.ar    1  UNL1        0.1669
     23 C          66.3078   92.7462   16.0963 C.ar    1  UNL1        0.1388
     24 N          67.7393   93.1942   16.0832 N.ar    1  UNL1       -0.2113
     25 C          68.6412   92.7903   14.9549 C.ar    1  UNL1        0.2501
     26 F          70.0728   93.2382   14.9417 F       1  UNL1       -0.1808
     27 C          68.1118   91.9384   13.8396 C.ar    1  UNL1        0.1888
     28 F          69.0137   91.5344   12.7111 F       1  UNL1       -0.2000
     29 C          66.6803   91.4904   13.8526 C.ar    1  UNL1        0.0727
@<TRIPOS>BOND
     1    10    11    2
     2    11    12   am
     3    12    14    1
     4    14    15   ar
     5    15    16   ar
     6    16    17   ar
     7    17    18    1
     8    17    19   ar
     9    19    20   ar
    10    11     1    1
    11     1     2   ar
    12     2     3   ar
    13     3    21    1
    14    21    22    1
    15    22    23   ar
    16    23    24   ar
    17    24    25   ar
    18    25    26    1
    19    25    27   ar
    20    27    28    1
    21    27    29   ar
    22     3     4   ar
    23     4     5   ar
    24     5     6   ar
    25     6     7   ar
    26     7     8   ar
    27     8     9   ar
    28    20    14   ar
    29     9     1   ar
    30    29    22   ar
    31     9     5   ar
    32    12    13    1
@<TRIPOS>MOLECULE
*****
 29 32 0 0 0
SMALL
GASTEIGER

@<TRIPOS>ATOM
      1 C          61.8032   87.2477   10.2780 C.ar    1  UNL1        0.0926
      2 C          62.3357   88.5313   10.8425 C.ar    1  UNL1        0.0467
      3 C          61.8060   89.8448   10.3485 C.ar    1  UNL1        0.1648
      4 C          60.7436   89.8747    9.2898 C.ar    1  UNL1        0.1395
      5 N          60.2111   88.5911    8.7253 N.ar    1  UNL1       -0.2060
      6 N          59.1716   88.3086    7.6814 N.ar    1  UNL1       -0.1408
      7 C          59.0590   86.8205    7.5303 C.ar    1  UNL1        0.2213
      8 N          60.0288   86.1833    8.4808 N.ar    1  UNL1       -0.2033
      9 C          60.7408   87.2776    9.2194 C.ar    1  UNL1        0.1702
     10 O          63.0634   85.0195    9.8340 O.2     1  UNL1       -0.2697
     11 C          62.3330   85.9342   10.7720 C.2     1  UNL1        0.2536
     12 N          62.1323   85.5354   12.2040 N.am    1  UNL1       -0.2657
     13 H          61.6529   86.1358   12.8197 H       1  UNL1        0.1566
     14 C          62.6622   84.2219   12.6980 C.ar    1  UNL1        0.1345
     15 C          62.4777   82.9816   11.8749 C.ar    1  UNL1        0.0368
     16 C          63.0075   81.6680   12.3688 C.ar    1  UNL1        0.0341
     17 C          63.7217   81.5948   13.6858 C.ar    1  UNL1        0.1593
     18 F          64.2515   80.2814   14.1797 F       1  UNL1       -0.2025
     19 C          63.9061   82.8352   14.5089 C.ar    1  UNL1        0.1298
     20 N          63.3763   84.1487   14.0150 N.ar    1  UNL1       -0.2267
     21 O          62.3385   91.1285   10.9130 O.3     1  UNL1       -0.4503
     22 C          63.4193   91.0992   11.9528 C.ar    1  UNL1        0.1669
     23 C          64.6635   91.9156   11.7645 C.ar    1  UNL1        0.1388
     24 N          65.7442   91.8864   12.8043 N.ar    1  UNL1       -0.2113
     25 C          65.5807   91.0407   14.0324 C.ar    1  UNL1        0.2501
     26 F          66.6615   91.0114   15.0723 F       1  UNL1       -0.1808
     27 C          64.3365   90.2243   14.2207 C.ar    1  UNL1        0.1888
     28 F          64.1730   89.3786   15.4488 F       1  UNL1       -0.2000
     29 C          63.2558   90.2536   13.1809 C.ar    1  UNL1        0.0727
@<TRIPOS>BOND
     1    10    11    2
     2    11    12   am
     3    12    14    1
     4    14    15   ar
     5    15    16   ar
     6    16    17   ar
     7    17    18    1
     8    17    19   ar
     9    19    20   ar
    10    11     1    1
    11     1     2   ar
    12     2     3   ar
    13     3    21    1
    14    21    22    1
    15    22    23   ar
    16    23    24   ar
    17    24    25   ar
    18    25    26    1
    19    25    27   ar
    20    27    28    1
    21    27    29   ar
    22     3     4   ar
    23     4     5   ar
    24     5     6   ar
    25     6     7   ar
    26     7     8   ar
    27     8     9   ar
    28    20    14   ar
    29     9     1   ar
    30    29    22   ar
    31     9     5   ar
    32    12    13    1
@<TRIPOS>MOLECULE
*****
 29 32 0 0 0
SMALL
GASTEIGER

@<TRIPOS>ATOM
      1 C          61.7601   87.2232   10.4724 C.ar    1  UNL1        0.0926
      2 C          62.2177   88.4900   11.1325 C.ar    1  UNL1        0.0467
      3 C          61.6748   89.8118   10.6765 C.ar    1  UNL1        0.1648
      4 C          60.6742   89.8668    9.5603 C.ar    1  UNL1        0.1395
      5 N          60.2166   88.6000    8.9002 N.ar    1  UNL1       -0.2060
      6 N          59.2481   88.3431    7.7839 N.ar    1  UNL1       -0.1408
      7 C          59.1925   86.8624    7.5501 C.ar    1  UNL1        0.2213
      8 N          60.1266   86.2043    8.5219 N.ar    1  UNL1       -0.2033
      9 C          60.7596   87.2782    9.3563 C.ar    1  UNL1        0.1702
     10 O          63.0390   85.0196    9.9636 O.2     1  UNL1       -0.2697
     11 C          62.3031   85.9014   10.9285 C.2     1  UNL1        0.2536
     12 N          62.1102   85.4613   12.3495 N.am    1  UNL1       -0.2657
     13 H          61.6273   86.0400   12.9828 H       1  UNL1        0.1566
     14 C          62.6533   84.1395   12.8055 C.ar    1  UNL1        0.1345
     15 C          62.4748   82.9201   11.9503 C.ar    1  UNL1        0.0368
     16 C          63.0178   81.5983   12.4062 C.ar    1  UNL1        0.0341
     17 C          63.7392   81.4957   13.7173 C.ar    1  UNL1        0.1593
     18 F          64.2822   80.1740   14.1732 F       1  UNL1       -0.2025
     19 C          63.9177   82.7152   14.5725 C.ar    1  UNL1        0.1298
     20 N          63.3747   84.0370   14.1166 N.ar    1  UNL1       -0.2267
     21 O          62.1324   91.0787   11.3366 O.3     1  UNL1       -0.4503
     22 C          63.3219   91.0610   12.2503 C.ar    1  UNL1        0.1669
     23 C          63.2591   90.3129   13.5489 C.ar    1  UNL1        0.1388
     24 N          64.4486   90.2952   14.4625 N.ar    1  UNL1       -0.2113
     25 C          65.7010   91.0255   14.0776 C.ar    1  UNL1        0.2501
     26 F          66.8905   91.0079   14.9912 F       1  UNL1       -0.1808
     27 C          65.7638   91.7736   12.7790 C.ar    1  UNL1        0.1888
     28 F          67.0161   92.5041   12.3939 F       1  UNL1       -0.2000
     29 C          64.5743   91.7913   11.8653 C.ar    1  UNL1        0.0727
@<TRIPOS>BOND
     1    10    11    2
     2    11    12   am
     3    12    14    1
     4    14    15   ar
     5    15    16   ar
     6    16    17   ar
     7    17    18    1
     8    17    19   ar
     9    19    20   ar
    10    11     1    1
    11     1     2   ar
    12     2     3   ar
    13     3    21    1
    14    21    22    1
    15    22    23   ar
    16    23    24   ar
    17    24    25   ar
    18    25    26    1
    19    25    27   ar
    20    27    28    1
    21    27    29   ar
    22     3     4   ar
    23     4     5   ar
    24     5     6   ar
    25     6     7   ar
    26     7     8   ar
    27     8     9   ar
    28    20    14   ar
    29     9     1   ar
    30    29    22   ar
    31     9     5   ar
    32    12    13    1
@<TRIPOS>MOLECULE
*****
 29 32 0 0 0
SMALL
GASTEIGER

@<TRIPOS>ATOM
      1 C          63.6779   90.2449   12.9991 C.ar    1  UNL1        0.0926
      2 C          64.5213   91.3351   12.4074 C.ar    1  UNL1        0.0467
      3 C          65.1742   92.3472   13.3014 C.ar    1  UNL1        0.1648
      4 C          64.9837   92.2692   14.7873 C.ar    1  UNL1        0.1395
      5 N          64.1403   91.1790   15.3790 N.ar    1  UNL1       -0.2060
      6 N          63.7744   90.8503   16.7960 N.ar    1  UNL1       -0.1408
      7 C          62.8953   89.6350   16.7777 C.ar    1  UNL1        0.2213
      8 N          62.7179   89.2126   15.3494 N.ar    1  UNL1       -0.2033
      9 C          63.4874   90.1669   14.4849 C.ar    1  UNL1        0.1702
     10 O          63.1076   87.7728   12.4392 O.2     1  UNL1       -0.2697
     11 C          63.0250   89.2328   12.1050 C.2     1  UNL1        0.2536
     12 N          62.2895   89.6807   10.8769 N.am    1  UNL1       -0.2657
     13 H          62.2352   90.6389   10.6576 H       1  UNL1        0.1566
     14 C          61.6366   88.6685    9.9828 C.ar    1  UNL1        0.1345
     15 C          60.3835   89.0229    9.2384 C.ar    1  UNL1        0.0368
     16 C          59.7306   88.0108    8.3443 C.ar    1  UNL1        0.0341
     17 C          60.3307   86.6443    8.1948 C.ar    1  UNL1        0.1593
     18 F          59.6778   85.6322    7.3008 F       1  UNL1       -0.2025
     19 C          61.5838   86.2899    8.9393 C.ar    1  UNL1        0.1298
     20 N          62.2367   87.3020    9.8332 N.ar    1  UNL1       -0.2267
     21 O          66.0176   93.4374   12.7096 O.3     1  UNL1       -0.4503
     22 C          66.8538   93.1631   11.4949 C.ar    1  UNL1        0.1669
     23 C          67.8858   92.0749   11.5249 C.ar    1  UNL1        0.1388
     24 N          68.7220   91.8006   10.3103 N.ar    1  UNL1       -0.2113
     25 C          68.5263   92.6144    9.0655 C.ar    1  UNL1        0.2501
     26 F          69.3625   92.3402    7.8508 F       1  UNL1       -0.1808
     27 C          67.4943   93.7026    9.0355 C.ar    1  UNL1        0.1888
     28 F          67.2985   94.5165    7.7908 F       1  UNL1       -0.2000
     29 C          66.6581   93.9769   10.2502 C.ar    1  UNL1        0.0727
@<TRIPOS>BOND
     1    10    11    2
     2    11    12   am
     3    12    14    1
     4    14    15   ar
     5    15    16   ar
     6    16    17   ar
     7    17    18    1
     8    17    19   ar
     9    19    20   ar
    10    11     1    1
    11     1     2   ar
    12     2     3   ar
    13     3    21    1
    14    21    22    1
    15    22    23   ar
    16    23    24   ar
    17    24    25   ar
    18    25    26    1
    19    25    27   ar
    20    27    28    1
    21    27    29   ar
    22     3     4   ar
    23     4     5   ar
    24     5     6   ar
    25     6     7   ar
    26     7     8   ar
    27     8     9   ar
    28    20    14   ar
    29     9     1   ar
    30    29    22   ar
    31     9     5   ar
    32    12    13    1
@<TRIPOS>MOLECULE
*****
 29 32 0 0 0
SMALL
GASTEIGER

@<TRIPOS>ATOM
      1 C          63.9236   86.9265   14.6520 C.ar    1  UNL1        0.0926
      2 C          64.3167   88.2209   14.0039 C.ar    1  UNL1        0.0467
      3 C          64.2047   89.5067   14.7679 C.ar    1  UNL1        0.1648
      4 C          63.6995   89.4983   16.1803 C.ar    1  UNL1        0.1395
      5 N          63.3063   88.2040   16.8285 N.ar    1  UNL1       -0.2060
      6 N          62.7784   87.8861   18.1961 N.ar    1  UNL1       -0.1408
      7 C          62.5642   86.4037   18.2771 C.ar    1  UNL1        0.2213
      8 N          62.9597   85.8055   16.9597 N.ar    1  UNL1       -0.2033
      9 C          63.4183   86.9181   16.0644 C.ar    1  UNL1        0.1702
     10 O          65.2189   84.7433   14.0992 O.2     1  UNL1       -0.2697
     11 C          64.0356   85.6406   13.8879 C.2     1  UNL1        0.2536
     12 N          62.9644   85.2521   12.9124 N.am    1  UNL1       -0.2657
     13 H          62.1878   85.8410   12.7737 H       1  UNL1        0.1566
     14 C          63.0765   83.9661   12.1483 C.ar    1  UNL1        0.1345
     15 C          63.7567   83.9450   10.8116 C.ar    1  UNL1        0.0368
     16 C          63.8688   82.6591   10.0474 C.ar    1  UNL1        0.0341
     17 C          63.3009   81.3944   10.6200 C.ar    1  UNL1        0.1593
     18 F          63.4130   80.1086    9.8559 F       1  UNL1       -0.2025
     19 C          62.6207   81.4156   11.9568 C.ar    1  UNL1        0.1298
     20 N          62.5086   82.7014   12.7209 N.ar    1  UNL1       -0.2267
     21 O          64.5979   90.8011   14.1197 O.3     1  UNL1       -0.4503
     22 C          65.7811   91.5675   14.6322 C.ar    1  UNL1        0.1669
     23 C          65.6538   92.4036   15.8710 C.ar    1  UNL1        0.1388
     24 N          66.8371   93.1700   16.3834 N.ar    1  UNL1       -0.2113
     25 C          68.1476   93.1003   15.6571 C.ar    1  UNL1        0.2501
     26 F          69.3309   93.8666   16.1695 F       1  UNL1       -0.1808
     27 C          68.2749   92.2641   14.4183 C.ar    1  UNL1        0.1888
     28 F          69.5854   92.1943   13.6918 F       1  UNL1       -0.2000
     29 C          67.0916   91.4977   13.9058 C.ar    1  UNL1        0.0727
@<TRIPOS>BOND
     1    10    11    2
     2    11    12   am
     3    12    14    1
     4    14    15   ar
     5    15    16   ar
     6    16    17   ar
     7    17    18    1
     8    17    19   ar
     9    19    20   ar
    10    11     1    1
    11     1     2   ar
    12     2     3   ar
    13     3    21    1
    14    21    22    1
    15    22    23   ar
    16    23    24   ar
    17    24    25   ar
    18    25    26    1
    19    25    27   ar
    20    27    28    1
    21    27    29   ar
    22     3     4   ar
    23     4     5   ar
    24     5     6   ar
    25     6     7   ar
    26     7     8   ar
    27     8     9   ar
    28    20    14   ar
    29     9     1   ar
    30    29    22   ar
    31     9     5   ar
    32    12    13    1
@<TRIPOS>MOLECULE
*****
 29 32 0 0 0
SMALL
GASTEIGER

@<TRIPOS>ATOM
      1 C          62.8141   88.2763   12.1348 C.ar    1  UNL1        0.0926
      2 C          63.6528   89.4198   12.6235 C.ar    1  UNL1        0.0467
      3 C          63.4202   90.8022   12.0900 C.ar    1  UNL1        0.1648
      4 C          62.3488   91.0413   11.0678 C.ar    1  UNL1        0.1395
      5 N          61.5100   89.8978   10.5790 N.ar    1  UNL1       -0.2060
      6 N          60.3893   89.8284    9.5845 N.ar    1  UNL1       -0.1408
      7 C          59.9293   88.4030    9.5034 C.ar    1  UNL1        0.2213
      8 N          60.7657   87.5914   10.4477 N.ar    1  UNL1       -0.2033
      9 C          61.7427   88.5153   11.1125 C.ar    1  UNL1        0.1702
     10 O          63.9656   86.6851   13.8355 O.2     1  UNL1       -0.2697
     11 C          63.0467   86.8938   12.6682 C.2     1  UNL1        0.2536
     12 N          62.3606   85.7201   12.0346 N.am    1  UNL1       -0.2657
     13 H          61.7576   85.8570   11.2685 H       1  UNL1        0.1566
     14 C          62.5934   84.3376   12.5681 C.ar    1  UNL1        0.1345
     15 C          63.0375   83.2422   11.6446 C.ar    1  UNL1        0.0368
     16 C          63.2702   81.8597   12.1781 C.ar    1  UNL1        0.0341
     17 C          63.0589   81.5726   13.6351 C.ar    1  UNL1        0.1593
     18 F          63.2916   80.1902   14.1685 F       1  UNL1       -0.2025
     19 C          62.6148   82.6681   14.5586 C.ar    1  UNL1        0.1298
     20 N          62.3820   84.0505   14.0251 N.ar    1  UNL1       -0.2267
     21 O          64.2590   91.9458   12.5788 O.3     1  UNL1       -0.4503
     22 C          65.4845   92.3561   11.8174 C.ar    1  UNL1        0.1669
     23 C          66.8345   91.8632   12.2470 C.ar    1  UNL1        0.1388
     24 N          68.0600   92.2736   11.4856 N.ar    1  UNL1       -0.2113
     25 C          67.9356   93.1768   10.2946 C.ar    1  UNL1        0.2501
     26 F          69.1610   93.5872    9.5331 F       1  UNL1       -0.1808
     27 C          66.5856   93.6697    9.8649 C.ar    1  UNL1        0.1888
     28 F          66.4610   94.5730    8.6738 F       1  UNL1       -0.2000
     29 C          65.3601   93.2594   10.6263 C.ar    1  UNL1        0.0727
@<TRIPOS>BOND
     1    10    11    2
     2    11    12   am
     3    12    14    1
     4    14    15   ar
     5    15    16   ar
     6    16    17   ar
     7    17    18    1
     8    17    19   ar
     9    19    20   ar
    10    11     1    1
    11     1     2   ar
    12     2     3   ar
    13     3    21    1
    14    21    22    1
    15    22    23   ar
    16    23    24   ar
    17    24    25   ar
    18    25    26    1
    19    25    27   ar
    20    27    28    1
    21    27    29   ar
    22     3     4   ar
    23     4     5   ar
    24     5     6   ar
    25     6     7   ar
    26     7     8   ar
    27     8     9   ar
    28    20    14   ar
    29     9     1   ar
    30    29    22   ar
    31     9     5   ar
    32    12    13    1
@<TRIPOS>MOLECULE
*****
 29 32 0 0 0
SMALL
GASTEIGER

@<TRIPOS>ATOM
      1 C          61.7866   88.1920   11.1189 C.ar    1  UNL1        0.0926
      2 C          62.9708   89.0231   10.7228 C.ar    1  UNL1        0.0467
      3 C          62.8628   90.5189   10.6985 C.ar    1  UNL1        0.1648
      4 C          61.5706   91.1838   11.0703 C.ar    1  UNL1        0.1395
      5 N          60.3864   90.3527   11.4664 N.ar    1  UNL1       -0.2060
      6 N          58.9933   90.7237   11.8806 N.ar    1  UNL1       -0.1408
      7 C          58.2403   89.4571   12.1609 C.ar    1  UNL1        0.2213
      8 N          59.1680   88.3032   11.9199 N.ar    1  UNL1       -0.2033
      9 C          60.4944   88.8568   11.4907 C.ar    1  UNL1        0.1702
     10 O          61.2087   85.8773   10.0899 O.2     1  UNL1       -0.2697
     11 C          61.8946   86.6960   11.1432 C.2     1  UNL1        0.2536
     12 N          62.6884   86.0188   12.2208 N.am    1  UNL1       -0.2657
     13 H          63.1386   86.5561   12.9121 H       1  UNL1        0.1566
     14 C          62.7963   84.5228   12.2450 C.ar    1  UNL1        0.1345
     15 C          63.3426   83.7910   11.0551 C.ar    1  UNL1        0.0368
     16 C          63.4506   82.2951   11.0792 C.ar    1  UNL1        0.0341
     17 C          63.0123   81.5310   12.2933 C.ar    1  UNL1        0.1593
     18 F          63.1202   80.0352   12.3174 F       1  UNL1       -0.2025
     19 C          62.4660   82.2629   13.4833 C.ar    1  UNL1        0.1298
     20 N          62.3580   83.7588   13.4591 N.ar    1  UNL1       -0.2267
     21 O          64.0471   91.3500   10.3024 O.3     1  UNL1       -0.4503
     22 C          64.8624   92.0430   11.3536 C.ar    1  UNL1        0.1669
     23 C          65.6765   93.2511   10.9961 C.ar    1  UNL1        0.1388
     24 N          66.4918   93.9440   12.0473 N.ar    1  UNL1       -0.2113
     25 C          66.4930   93.4290   13.4561 C.ar    1  UNL1        0.2501
     26 F          67.3082   94.1219   14.5074 F       1  UNL1       -0.1808
     27 C          65.6789   92.2209   13.8136 C.ar    1  UNL1        0.1888
     28 F          65.6800   91.7057   15.2225 F       1  UNL1       -0.2000
     29 C          64.8636   91.5279   12.7624 C.ar    1  UNL1        0.0727
@<TRIPOS>BOND
     1    10    11    2
     2    11    12   am
     3    12    14    1
     4    14    15   ar
     5    15    16   ar
     6    16    17   ar
     7    17    18    1
     8    17    19   ar
     9    19    20   ar
    10    11     1    1
    11     1     2   ar
    12     2     3   ar
    13     3    21    1
    14    21    22    1
    15    22    23   ar
    16    23    24   ar
    17    24    25   ar
    18    25    26    1
    19    25    27   ar
    20    27    28    1
    21    27    29   ar
    22     3     4   ar
    23     4     5   ar
    24     5     6   ar
    25     6     7   ar
    26     7     8   ar
    27     8     9   ar
    28    20    14   ar
    29     9     1   ar
    30    29    22   ar
    31     9     5   ar
    32    12    13    1
