@<TRIPOS>MOLECULE
*****
 36 39 0 0 0
SMALL
GASTEIGER

@<TRIPOS>ATOM
      1 N          64.1236   90.7273   12.9655 N.am    1  LEU1       -0.2603
      2 C          63.2974   89.7524   12.1799 C.2     2  UNK2        0.2444
      3 O          62.7897   88.5015   12.8339 O.2     2  UNK2       -0.2731
      4 C          62.9790   90.0284   10.7403 C.3     2  UNK2        0.1494
      5 N          63.4866   91.2793   10.0864 N.am    2  UNK2       -0.2970
      6 C          64.3128   92.2541   10.8721 C.2     1  LEU1        0.2409
      7 O          64.8205   93.5050   10.2181 O.2     1  LEU1       -0.2733
      8 CA         64.6312   91.9781   12.3116 C.3     1  LEU1        0.1524
      9 H          63.2776   91.4604    9.1416 H       2  UNK2        0.1499
     10 C          62.1528   89.0536    9.9547 C.3     2  UNK2        0.0356
     11 C          60.7607   89.2860    9.4468 C.3     2  UNK2        0.0285
     12 C          60.3212   88.0513    8.7172 C.ar    2  UNK2       -0.0261
     13 C          59.0455   87.7049    8.0084 C.ar    2  UNK2       -0.0046
     14 C          58.8904   86.3629    7.3565 C.ar    2  UNK2       -0.0003
     15 C          60.0109   85.3674    7.4135 C.ar    2  UNK2       -0.0003
     16 C          61.2866   85.7138    8.1223 C.ar    2  UNK2       -0.0046
     17 C          61.4418   87.0557    8.7742 C.ar    2  UNK2       -0.0261
     18 C          62.5738   87.6752    9.5390 C.3     2  UNK2        0.0285
     19 C          64.4420   90.4512   14.4052 C.3     0  UNK0        0.1960
     20 C          69.0525   92.5280   15.9255 C.3     0  UNK0        0.0950
     21 C          67.5848   92.2375   15.8185 C.ar    0  UNK0        0.2061
     22 N          66.9476   91.2454   14.8913 N.ar    0  UNK0       -0.2142
     23 C          65.4656   91.2829   15.1197 C.ar    0  UNK0        0.1262
     24 C          65.1868   92.2982   16.1881 C.ar    0  UNK0        0.1979
     25 O          66.4965   92.8882   16.6200 O.2     0  UNK0       -0.4355
     26 C          63.7369   89.3434   15.1302 C.2     0  UNK0        0.2465
     27 O          62.4229   89.6055   15.8044 O.2     0  UNK0       -0.2729
     28 N          64.3459   87.9735   15.1810 N.am    0  UNK0       -0.3043
     29 H          65.2084   87.8015   14.7385 H       0  UNK0        0.1494
     30 C          63.6409   86.8657   15.9060 C.3     0  UNK0        0.0717
     31 C          63.6268   85.4814   15.3287 C.3     0  UNK0        0.0213
     32 C          62.9498   87.1423   17.2083 C.3     0  UNK0        0.0213
     33 CB         65.4574   92.9529   13.0973 C.3     1  LEU1        0.0292
     34 CG         66.5708   93.7028   12.4280 C.3     1  LEU1        0.0021
     35 CD1        66.5291   95.2004   12.3557 C.3     1  LEU1        0.0001
     36 CD2        67.7260   92.9549   11.8309 C.3     1  LEU1        0.0001
@<TRIPOS>BOND
     1    20    21    1
     2    21    22   ar
     3    22    23   ar
     4    23    19    1
     5    19    26    1
     6    26    27    2
     7    26    28   am
     8    28    30    1
     9    30    31    1
    10    30    32    1
    11    19     1    1
    12     1     2   am
    13     2     3    2
    14     2     4    1
    15     4    10    1
    16    10    11    1
    17    11    12    1
    18    12    13   ar
    19    13    14   ar
    20    14    15   ar
    21    15    16   ar
    22    16    17   ar
    23    17    18    1
    24     4     5    1
    25     5     6   am
    26     6     7    2
    27     6     8    1
    28     8    33    1
    29    33    34    1
    30    34    35    1
    31    34    36    1
    32    23    24   ar
    33    24    25   ar
    34    25    21   ar
    35     8     1    1
    36    18    10    1
    37    17    12   ar
    38    28    29    1
    39     5     9    1
@<TRIPOS>MOLECULE
*****
 36 39 0 0 0
SMALL
GASTEIGER

@<TRIPOS>ATOM
      1 N          61.9192   87.7116   11.2648 N.am    1  LEU1       -0.2603
      2 C          62.9475   88.4719   12.0488 C.2     2  UNK2        0.2444
      3 O          64.1960   87.7830   12.5142 O.2     2  UNK2       -0.2731
      4 C          62.7272   89.9210   12.3673 C.3     2  UNK2        0.1494
      5 N          61.4786   90.6098   11.9018 N.am    2  UNK2       -0.2970
      6 C          60.4504   89.8495   11.1178 C.2     1  LEU1        0.2409
      7 O          59.2018   90.5383   10.6523 O.2     1  LEU1       -0.2733
      8 CA         60.6707   88.4003   10.7993 C.3     1  LEU1        0.1524
      9 H          61.3340   91.5609   12.1108 H       2  UNK2        0.1499
     10 C          63.7554   90.6814   13.1512 C.3     2  UNK2        0.0356
     11 C          63.8503   90.7506   14.6466 C.3     2  UNK2        0.0285
     12 C          65.0228   91.6180   14.9971 C.ar    2  UNK2       -0.0261
     13 C          65.5983   92.0430   16.3154 C.ar    2  UNK2       -0.0046
     14 C          66.8037   92.9349   16.3549 C.ar    2  UNK2       -0.0003
     15 C          67.4335   93.4017   15.0761 C.ar    2  UNK2       -0.0003
     16 C          66.8580   92.9767   13.7578 C.ar    2  UNK2       -0.0046
     17 C          65.6526   92.0848   13.7183 C.ar    2  UNK2       -0.0261
     18 C          64.8693   91.5059   12.5775 C.3     2  UNK2        0.0285
     19 C          62.1396   86.2624   10.9463 C.3     0  UNK0        0.1960
     20 C          61.0467   84.2978    6.1686 C.3     0  UNK0        0.0950
     21 C          61.7760   84.9177    7.3234 C.ar    0  UNK0        0.2061
     22 N          61.2016   85.1996    8.6801 N.ar    0  UNK0       -0.2142
     23 C          62.2784   85.8208    9.5195 C.ar    0  UNK0        0.1262
     24 C          63.5184   85.9227    8.6816 C.ar    0  UNK0        0.1979
     25 O          63.2079   85.3646    7.3244 O.2     0  UNK0       -0.4355
     26 C          62.2211   85.2549   12.0545 C.2     0  UNK0        0.2465
     27 O          61.7158   85.6030   13.4233 O.2     0  UNK0       -0.2729
     28 N          62.8079   83.8992   11.7941 N.am    0  UNK0       -0.3043
     29 H          63.1396   83.6707   10.8957 H       0  UNK0        0.1494
     30 C          62.8895   82.8917   12.9023 C.3     0  UNK0        0.0717
     31 C          63.8343   83.1104   14.0466 C.3     0  UNK0        0.0213
     32 C          62.0262   81.6655   12.8663 C.3     0  UNK0        0.0213
     33 CB         59.6425   87.6400   10.0153 C.3     1  LEU1        0.0292
     34 CG         59.4843   87.8904    8.5449 C.3     1  LEU1        0.0021
     35 CD1        58.7071   86.9257    7.6991 C.3     1  LEU1        0.0001
     36 CD2        60.1035   89.1055    7.9201 C.3     1  LEU1        0.0001
@<TRIPOS>BOND
     1    20    21    1
     2    21    22   ar
     3    22    23   ar
     4    23    19    1
     5    19    26    1
     6    26    27    2
     7    26    28   am
     8    28    30    1
     9    30    31    1
    10    30    32    1
    11    19     1    1
    12     1     2   am
    13     2     3    2
    14     2     4    1
    15     4    10    1
    16    10    11    1
    17    11    12    1
    18    12    13   ar
    19    13    14   ar
    20    14    15   ar
    21    15    16   ar
    22    16    17   ar
    23    17    18    1
    24     4     5    1
    25     5     6   am
    26     6     7    2
    27     6     8    1
    28     8    33    1
    29    33    34    1
    30    34    35    1
    31    34    36    1
    32    23    24   ar
    33    24    25   ar
    34    25    21   ar
    35     8     1    1
    36    18    10    1
    37    17    12   ar
    38    28    29    1
    39     5     9    1
@<TRIPOS>MOLECULE
*****
 36 39 0 0 0
SMALL
GASTEIGER

@<TRIPOS>ATOM
      1 N          62.8361   86.6434   12.1329 N.am    1  LEU1       -0.2603
      2 C          63.6348   87.7236   12.8002 C.2     2  UNK2        0.2444
      3 O          64.5027   87.3953   13.9788 O.2     2  UNK2       -0.2731
      4 C          63.5657   89.1321   12.2890 C.3     2  UNK2        0.1494
      5 N          62.6978   89.4603   11.1104 N.am    2  UNK2       -0.2970
      6 C          61.8991   88.3802   10.4432 C.2     1  LEU1        0.2409
      7 O          61.0311   88.7085    9.2646 O.2     1  LEU1       -0.2733
      8 CA         61.9682   86.9717   10.9544 C.3     1  LEU1        0.1524
      9 H          62.6524   90.3848   10.7749 H       2  UNK2        0.1499
     10 C          64.3644   90.2122   12.9563 C.3     2  UNK2        0.0356
     11 C          64.8680   91.4663   12.3054 C.3     2  UNK2        0.0285
     12 C          65.6146   92.2572   13.3384 C.ar    2  UNK2       -0.0261
     13 C          66.3274   93.5752   13.2716 C.ar    2  UNK2       -0.0046
     14 C          66.9980   94.1280   14.4941 C.ar    2  UNK2       -0.0003
     15 C          66.9558   93.3627   15.7835 C.ar    2  UNK2       -0.0003
     16 C          66.2430   92.0446   15.8504 C.ar    2  UNK2       -0.0046
     17 C          65.5724   91.4919   14.6278 C.ar    2  UNK2       -0.0261
     18 C          64.7997   90.2281   14.3916 C.3     2  UNK2        0.0285
     19 C          62.9053   85.2349   12.6442 C.3     0  UNK0        0.1960
     20 C          63.0871   80.5705   10.1762 C.3     0  UNK0        0.0950
     21 C          63.3974   81.9785   10.5902 C.ar    0  UNK0        0.2061
     22 N          62.6721   82.7694   11.6382 N.ar    0  UNK0       -0.2142
     23 C          63.3138   84.1225   11.7247 C.ar    0  UNK0        0.1262
     24 C          64.4358   84.1677   10.7301 C.ar    0  UNK0        0.1979
     25 O          64.4875   82.8426   10.0290 O.2     0  UNK0       -0.4355
     26 C          62.5660   84.9389   14.0750 C.2     0  UNK0        0.2465
     27 O          61.6180   83.8246   14.4060 O.2     0  UNK0       -0.2729
     28 N          63.1748   85.7572   15.1750 N.am    0  UNK0       -0.3043
     29 H          63.7971   86.4885   14.9578 H       0  UNK0        0.1494
     30 C          62.8356   85.4612   16.6058 C.3     0  UNK0        0.0717
     31 C          62.5629   86.5859   17.5600 C.3     0  UNK0        0.0213
     32 C          62.7689   84.0405   17.0823 C.3     0  UNK0        0.0213
     33 CB         61.1695   85.8915   10.2871 C.3     1  LEU1        0.0292
     34 CG         61.2338   85.7223    8.7981 C.3     1  LEU1        0.0021
     35 CD1        62.5262   85.3352    8.1424 C.3     1  LEU1        0.0001
     36 CD2        60.0057   85.9402    7.9648 C.3     1  LEU1        0.0001
@<TRIPOS>BOND
     1    20    21    1
     2    21    22   ar
     3    22    23   ar
     4    23    19    1
     5    19    26    1
     6    26    27    2
     7    26    28   am
     8    28    30    1
     9    30    31    1
    10    30    32    1
    11    19     1    1
    12     1     2   am
    13     2     3    2
    14     2     4    1
    15     4    10    1
    16    10    11    1
    17    11    12    1
    18    12    13   ar
    19    13    14   ar
    20    14    15   ar
    21    15    16   ar
    22    16    17   ar
    23    17    18    1
    24     4     5    1
    25     5     6   am
    26     6     7    2
    27     6     8    1
    28     8    33    1
    29    33    34    1
    30    34    35    1
    31    34    36    1
    32    23    24   ar
    33    24    25   ar
    34    25    21   ar
    35     8     1    1
    36    18    10    1
    37    17    12   ar
    38    28    29    1
    39     5     9    1
@<TRIPOS>MOLECULE
*****
 36 39 0 0 0
SMALL
GASTEIGER

@<TRIPOS>ATOM
      1 N          63.0009   86.2853   12.8902 N.am    1  LEU1       -0.2603
      2 C          63.5695   87.6692   12.7834 C.2     2  UNK2        0.2444
      3 O          63.6038   88.3656   11.4553 O.2     2  UNK2       -0.2731
      4 C          64.1039   88.3568   14.0048 C.3     2  UNK2        0.1494
      5 N          64.0696   87.6604   15.3328 N.am    2  UNK2       -0.2970
      6 C          63.5009   86.2765   15.4396 C.2     1  LEU1        0.2409
      7 O          63.4666   85.5801   16.7678 O.2     1  LEU1       -0.2733
      8 CA         62.9665   85.5889   14.2183 C.3     1  LEU1        0.1524
      9 H          64.4203   88.1117   16.1345 H       2  UNK2        0.1499
     10 C          64.6725   89.7407   13.8980 C.3     2  UNK2        0.0356
     11 C          65.4357   90.4652   14.9670 C.3     2  UNK2        0.0285
     12 C          65.8127   91.8154   14.4332 C.ar    2  UNK2       -0.0261
     13 C          66.5703   92.9589   15.0402 C.ar    2  UNK2       -0.0046
     14 C          66.7977   94.2123   14.2483 C.ar    2  UNK2       -0.0003
     15 C          66.2675   94.3223   12.8494 C.ar    2  UNK2       -0.0003
     16 C          65.5099   93.1788   12.2424 C.ar    2  UNK2       -0.0046
     17 C          65.2826   91.9253   13.0343 C.ar    2  UNK2       -0.0261
     18 C          64.5779   90.6431   12.7036 C.3     2  UNK2        0.0285
     19 C          62.4665   85.5978   11.6688 C.3     0  UNK0        0.1960
     20 C          62.8839   80.4099   10.7784 C.3     0  UNK0        0.0950
     21 C          63.2002   81.8741   10.8551 C.ar    0  UNK0        0.2061
     22 N          62.2881   82.9473   11.3713 N.ar    0  UNK0       -0.2142
     23 C          63.0083   84.2588   11.2644 C.ar    0  UNK0        0.1262
     24 C          64.3655   83.9961   10.6820 C.ar    0  UNK0        0.1979
     25 O          64.4841   82.5223   10.4291 O.2     0  UNK0       -0.4355
     26 C          61.3903   86.2492   10.8518 C.2     0  UNK0        0.2465
     27 O          60.3376   87.0799   11.5239 O.2     0  UNK0       -0.2729
     28 N          61.3669   86.0700    9.3627 N.am    0  UNK0       -0.3043
     29 H          62.0579   85.5249    8.9215 H       0  UNK0        0.1494
     30 C          60.2908   86.7215    8.5457 C.3     0  UNK0        0.0717
     31 C          59.9446   88.1629    8.7742 C.3     0  UNK0        0.0213
     32 C          59.5608   85.9314    7.5002 C.3     0  UNK0        0.0213
     33 CB         62.3979   84.2050   14.3250 C.3     1  LEU1        0.0292
     34 CG         63.3156   83.0222   14.4175 C.3     1  LEU1        0.0021
     35 CD1        62.7469   81.6388   14.5312 C.3     1  LEU1        0.0001
     36 CD2        64.8020   83.2226   14.3963 C.3     1  LEU1        0.0001
@<TRIPOS>BOND
     1    20    21    1
     2    21    22   ar
     3    22    23   ar
     4    23    19    1
     5    19    26    1
     6    26    27    2
     7    26    28   am
     8    28    30    1
     9    30    31    1
    10    30    32    1
    11    19     1    1
    12     1     2   am
    13     2     3    2
    14     2     4    1
    15     4    10    1
    16    10    11    1
    17    11    12    1
    18    12    13   ar
    19    13    14   ar
    20    14    15   ar
    21    15    16   ar
    22    16    17   ar
    23    17    18    1
    24     4     5    1
    25     5     6   am
    26     6     7    2
    27     6     8    1
    28     8    33    1
    29    33    34    1
    30    34    35    1
    31    34    36    1
    32    23    24   ar
    33    24    25   ar
    34    25    21   ar
    35     8     1    1
    36    18    10    1
    37    17    12   ar
    38    28    29    1
    39     5     9    1
@<TRIPOS>MOLECULE
*****
 36 39 0 0 0
SMALL
GASTEIGER

@<TRIPOS>ATOM
      1 N          63.1091   90.1913   12.7637 N.am    1  LEU1       -0.2603
      2 C          63.8134   91.1289   11.8283 C.2     2  UNK2        0.2444
      3 O          63.5408   91.0634   10.3547 O.2     2  UNK2       -0.2731
      4 C          64.7903   92.1318   12.3665 C.3     2  UNK2        0.1494
      5 N          65.0628   92.1973   13.8400 N.am    2  UNK2       -0.2970
      6 C          64.3585   91.2597   14.7754 C.2     1  LEU1        0.2409
      7 O          64.6311   91.3252   16.2490 O.2     1  LEU1       -0.2733
      8 CA         63.3817   90.2567   14.2372 C.3     1  LEU1        0.1524
      9 H          65.7040   92.8556   14.1933 H       2  UNK2        0.1499
     10 C          65.4946   93.0694   11.4311 C.3     2  UNK2        0.0356
     11 C          65.5764   94.5604   11.5733 C.3     2  UNK2        0.0285
     12 C          66.3731   95.0931   10.4194 C.ar    2  UNK2       -0.0261
     13 C          66.7778   96.4859   10.0370 C.ar    2  UNK2       -0.0046
     14 C          67.5930   96.7170    8.7993 C.ar    2  UNK2       -0.0003
     15 C          68.0037   95.5552    7.9440 C.ar    2  UNK2       -0.0003
     16 C          67.5990   94.1623    8.3264 C.ar    2  UNK2       -0.0046
     17 C          66.7838   93.9313    9.5641 C.ar    2  UNK2       -0.0261
     18 C          66.2408   92.6806   10.1894 C.3     2  UNK2        0.0285
     19 C          62.1322   89.1882   12.2254 C.3     0  UNK0        0.1960
     20 C          56.8969   88.8898   12.8450 C.3     0  UNK0        0.0950
     21 C          58.2628   89.3791   12.4642 C.ar    0  UNK0        0.2061
     22 N          59.5584   88.6705   12.7277 N.ar    0  UNK0       -0.2142
     23 C          60.6692   89.5162   12.1794 C.ar    0  UNK0        0.1262
     24 C          60.0602   90.7476   11.5770 C.ar    0  UNK0        0.1979
     25 O          58.5730   90.6628   11.7530 O.2     0  UNK0       -0.4355
     26 C          62.6183   87.8573   11.7332 C.2     0  UNK0        0.2465
     27 O          63.7362   87.1564   12.4467 O.2     0  UNK0       -0.2729
     28 N          61.9865   87.2272   10.5274 N.am    0  UNK0       -0.3043
     29 H          61.2528   87.6872   10.0591 H       0  UNK0        0.1494
     30 C          62.4726   85.8963   10.0352 C.3     0  UNK0        0.0717
     31 C          62.8986   85.7352    8.6060 C.3     0  UNK0        0.0213
     32 C          62.5326   84.7264   10.9721 C.3     0  UNK0        0.0213
     33 CB         62.6773   89.3191   15.1726 C.3     1  LEU1        0.0292
     34 CG         63.4391   88.2127   15.8399 C.3     1  LEU1        0.0021
     35 CD1        64.5783   87.5489   15.1246 C.3     1  LEU1        0.0001
     36 CD2        63.0618   87.7699   17.2225 C.3     1  LEU1        0.0001
@<TRIPOS>BOND
     1    20    21    1
     2    21    22   ar
     3    22    23   ar
     4    23    19    1
     5    19    26    1
     6    26    27    2
     7    26    28   am
     8    28    30    1
     9    30    31    1
    10    30    32    1
    11    19     1    1
    12     1     2   am
    13     2     3    2
    14     2     4    1
    15     4    10    1
    16    10    11    1
    17    11    12    1
    18    12    13   ar
    19    13    14   ar
    20    14    15   ar
    21    15    16   ar
    22    16    17   ar
    23    17    18    1
    24     4     5    1
    25     5     6   am
    26     6     7    2
    27     6     8    1
    28     8    33    1
    29    33    34    1
    30    34    35    1
    31    34    36    1
    32    23    24   ar
    33    24    25   ar
    34    25    21   ar
    35     8     1    1
    36    18    10    1
    37    17    12   ar
    38    28    29    1
    39     5     9    1
@<TRIPOS>MOLECULE
*****
 36 39 0 0 0
SMALL
GASTEIGER

@<TRIPOS>ATOM
      1 N          64.2883   90.8921   12.8798 N.am    1  LEU1       -0.2603
      2 C          63.4117   89.9269   12.1382 C.2     2  UNK2        0.2444
      3 O          62.9273   88.6799   12.8168 O.2     2  UNK2       -0.2731
      4 C          63.0195   90.2087   10.7181 C.3     2  UNK2        0.1494
      5 N          63.5038   91.4557   10.0396 N.am    2  UNK2       -0.2970
      6 C          64.3804   92.4209   10.7812 C.2     1  LEU1        0.2409
      7 O          64.8647   93.6679   10.1027 O.2     1  LEU1       -0.2733
      8 CA         64.7726   92.1391   12.2013 C.3     1  LEU1        0.1524
      9 H          63.2464   91.6406    9.1076 H       2  UNK2        0.1499
     10 C          62.1429   89.2435    9.9765 C.3     2  UNK2        0.0356
     11 C          60.7751   89.5330    9.4330 C.3     2  UNK2        0.0285
     12 C          60.2671   88.2877    8.7688 C.ar    2  UNK2       -0.0261
     13 C          58.9811   87.9814    8.0601 C.ar    2  UNK2       -0.0046
     14 C          58.7489   86.6159    7.4843 C.ar    2  UNK2       -0.0003
     15 C          59.8026   85.5568    7.6174 C.ar    2  UNK2       -0.0003
     16 C          61.0886   85.8630    8.3261 C.ar    2  UNK2       -0.0046
     17 C          61.3208   87.2285    8.9018 C.ar    2  UNK2       -0.0261
     18 C          62.4801   87.8192    9.6482 C.3     2  UNK2        0.0285
     19 C          64.6805   90.6103   14.3000 C.3     0  UNK0        0.1960
     20 C          63.9716   85.5712   15.7093 C.3     0  UNK0        0.0950
     21 C          63.8431   87.0640   15.6371 C.ar    0  UNK0        0.2061
     22 N          64.6147   87.9723   14.7263 N.ar    0  UNK0       -0.2142
     23 C          64.1690   89.3802   14.9893 C.ar    0  UNK0        0.1262
     24 C          63.1219   89.3420   16.0627 C.ar    0  UNK0        0.1979
     25 O          62.9205   87.9105   16.4631 O.2     0  UNK0       -0.4355
     26 C          65.5842   91.5586   15.0308 C.2     0  UNK0        0.2465
     27 O          64.9994   92.6377   15.8931 O.2     0  UNK0       -0.2729
     28 N          67.0727   91.4278   14.8992 N.am    0  UNK0       -0.3043
     29 H          67.4565   90.7196   14.3332 H       0  UNK0        0.1494
     30 C          67.9764   92.3761   15.6300 C.3     0  UNK0        0.0717
     31 C          67.9353   93.8425   15.3173 C.3     0  UNK0        0.0213
     32 C          68.9212   91.8579   16.6735 C.3     0  UNK0        0.0213
     33 CB         65.6492   93.1043   12.9429 C.3     1  LEU1        0.0292
     34 CG         66.6074   93.9784   12.1896 C.3     1  LEU1        0.0021
     35 CD1        67.7253   93.3615   11.4023 C.3     1  LEU1        0.0001
     36 CD2        66.4479   95.4696   12.2234 C.3     1  LEU1        0.0001
@<TRIPOS>BOND
     1    20    21    1
     2    21    22   ar
     3    22    23   ar
     4    23    19    1
     5    19    26    1
     6    26    27    2
     7    26    28   am
     8    28    30    1
     9    30    31    1
    10    30    32    1
    11    19     1    1
    12     1     2   am
    13     2     3    2
    14     2     4    1
    15     4    10    1
    16    10    11    1
    17    11    12    1
    18    12    13   ar
    19    13    14   ar
    20    14    15   ar
    21    15    16   ar
    22    16    17   ar
    23    17    18    1
    24     4     5    1
    25     5     6   am
    26     6     7    2
    27     6     8    1
    28     8    33    1
    29    33    34    1
    30    34    35    1
    31    34    36    1
    32    23    24   ar
    33    24    25   ar
    34    25    21   ar
    35     8     1    1
    36    18    10    1
    37    17    12   ar
    38    28    29    1
    39     5     9    1
@<TRIPOS>MOLECULE
*****
 36 39 0 0 0
SMALL
GASTEIGER

@<TRIPOS>ATOM
      1 N          62.8532   88.3986   12.2293 N.am    1  LEU1       -0.2603
      2 C          62.7798   86.9371   11.8996 C.2     2  UNK2        0.2444
      3 O          62.3206   86.4969   10.5412 O.2     2  UNK2       -0.2731
      4 C          63.1657   85.9159   12.9283 C.3     2  UNK2        0.1494
      5 N          63.6249   86.3562   14.2867 N.am    2  UNK2       -0.2970
      6 C          63.6983   87.8177   14.6164 C.2     1  LEU1        0.2409
      7 O          64.1575   88.2579   15.9749 O.2     1  LEU1       -0.2733
      8 CA         63.3124   88.8389   13.5877 C.3     1  LEU1        0.1524
      9 H          63.8781   85.6859   14.9619 H       2  UNK2        0.1499
     10 C          63.0923   84.4545   12.5986 C.3     2  UNK2        0.0356
     11 C          62.7296   83.3531   13.5501 C.3     2  UNK2        0.0285
     12 C          62.7819   82.0557   12.7991 C.ar    2  UNK2       -0.0261
     13 C          62.5208   80.6403   13.2214 C.ar    2  UNK2       -0.0046
     14 C          62.6548   79.5244   12.2280 C.ar    2  UNK2       -0.0003
     15 C          63.0498   79.8239   10.8123 C.ar    2  UNK2       -0.0003
     16 C          63.3109   81.2393   10.3900 C.ar    2  UNK2       -0.0046
     17 C          63.1769   82.3552   11.3834 C.ar    2  UNK2       -0.0261
     18 C          63.3688   83.8377   11.2595 C.3     2  UNK2        0.0285
     19 C          62.4674   89.4198   11.2006 C.3     0  UNK0        0.1960
     20 C          66.4132   92.9081   11.5790 C.3     0  UNK0        0.0950
     21 C          65.1643   92.2103   11.1280 C.ar    0  UNK0        0.2061
     22 N          64.6052   90.9433   11.7043 N.ar    0  UNK0       -0.2142
     23 C          63.3506   90.6069   10.9541 C.ar    0  UNK0        0.1262
     24 C          63.1344   91.6660    9.9141 C.ar    0  UNK0        0.1979
     25 O          64.2553   92.6570   10.0216 O.2     0  UNK0       -0.4355
     26 C          61.1983   89.2540   10.4183 C.2     0  UNK0        0.2465
     27 O          59.9088   89.7995   10.9565 O.2     0  UNK0       -0.2729
     28 N          61.2187   88.5426    9.0979 N.am    0  UNK0       -0.3043
     29 H          62.0650   88.1846    8.7446 H       0  UNK0        0.1494
     30 C          59.9496   88.3767    8.3156 C.3     0  UNK0        0.0717
     31 C          59.5302   89.4309    7.3344 C.3     0  UNK0        0.0213
     32 C          59.0999   87.1567    8.5146 C.3     0  UNK0        0.0213
     33 CB         63.3858   90.3004   13.9174 C.3     1  LEU1        0.0292
     34 CG         64.3802   90.7925   14.9269 C.3     1  LEU1        0.0021
     35 CD1        63.9110   91.2814   16.2651 C.3     1  LEU1        0.0001
     36 CD2        65.8437   90.7956   14.5981 C.3     1  LEU1        0.0001
@<TRIPOS>BOND
     1    20    21    1
     2    21    22   ar
     3    22    23   ar
     4    23    19    1
     5    19    26    1
     6    26    27    2
     7    26    28   am
     8    28    30    1
     9    30    31    1
    10    30    32    1
    11    19     1    1
    12     1     2   am
    13     2     3    2
    14     2     4    1
    15     4    10    1
    16    10    11    1
    17    11    12    1
    18    12    13   ar
    19    13    14   ar
    20    14    15   ar
    21    15    16   ar
    22    16    17   ar
    23    17    18    1
    24     4     5    1
    25     5     6   am
    26     6     7    2
    27     6     8    1
    28     8    33    1
    29    33    34    1
    30    34    35    1
    31    34    36    1
    32    23    24   ar
    33    24    25   ar
    34    25    21   ar
    35     8     1    1
    36    18    10    1
    37    17    12   ar
    38    28    29    1
    39     5     9    1
@<TRIPOS>MOLECULE
*****
 36 39 0 0 0
SMALL
GASTEIGER

@<TRIPOS>ATOM
      1 N          63.1728   86.9023   12.7946 N.am    1  LEU1       -0.2603
      2 C          63.9913   88.0186   13.3725 C.2     2  UNK2        0.2444
      3 O          64.8326   87.7787   14.5910 O.2     2  UNK2       -0.2731
      4 C          63.9686   89.3747   12.7319 C.3     2  UNK2        0.1494
      5 N          63.1274   89.6146   11.5134 N.am    2  UNK2       -0.2970
      6 C          62.3089   88.4983   10.9355 C.2     1  LEU1        0.2409
      7 O          61.4676   88.7382    9.7170 O.2     1  LEU1       -0.2733
      8 CA         62.3316   87.1422   11.5761 C.3     1  LEU1        0.1524
      9 H          63.1125   90.5046   11.0930 H       2  UNK2        0.1499
     10 C          64.7872   90.4910   13.3098 C.3     2  UNK2        0.0356
     11 C          65.0525   91.8171   12.6610 C.3     2  UNK2        0.0285
     12 C          65.9134   92.6228   13.5882 C.ar    2  UNK2       -0.0261
     13 C          66.4889   94.0036   13.4778 C.ar    2  UNK2       -0.0046
     14 C          67.3311   94.5562   14.5892 C.ar    2  UNK2       -0.0003
     15 C          67.5978   93.7280   15.8111 C.ar    2  UNK2       -0.0003
     16 C          67.0223   92.3472   15.9215 C.ar    2  UNK2       -0.0046
     17 C          66.1801   91.7947   14.8101 C.ar    2  UNK2       -0.0261
     18 C          65.4841   90.4771   14.6380 C.3     2  UNK2        0.0285
     19 C          63.1956   85.5462   13.4352 C.3     0  UNK0        0.1960
     20 C          62.6877   86.6248   18.5791 C.3     0  UNK0        0.0950
     21 C          62.6786   85.9002   17.2657 C.ar    0  UNK0        0.2061
     22 N          63.0736   86.4762   15.9383 N.ar    0  UNK0       -0.2142
     23 C          62.9120   85.4044   14.9013 C.ar    0  UNK0        0.1262
     24 C          62.4171   84.1661   15.5880 C.ar    0  UNK0        0.1979
     25 O          62.2728   84.4725   17.0493 O.2     0  UNK0       -0.4355
     26 C          63.5018   84.3318   12.6097 C.2     0  UNK0        0.2465
     27 O          64.8146   84.2243   11.8920 O.2     0  UNK0       -0.2729
     28 N          62.4953   83.2248   12.5019 N.am    0  UNK0       -0.3043
     29 H          61.6337   83.2953   12.9730 H       0  UNK0        0.1494
     30 C          62.8016   82.0104   11.6764 C.3     0  UNK0        0.0717
     31 C          63.2183   82.1631   10.2436 C.3     0  UNK0        0.0213
     32 C          62.6911   80.6433   12.2838 C.3     0  UNK0        0.0213
     33 CB         61.5131   86.0259   10.9982 C.3     1  LEU1        0.0292
     34 CG         61.4890   85.8037    9.5149 C.3     1  LEU1        0.0021
     35 CD1        62.7267   85.3399    8.8058 C.3     1  LEU1        0.0001
     36 CD2        60.2270   86.0452    8.7408 C.3     1  LEU1        0.0001
@<TRIPOS>BOND
     1    20    21    1
     2    21    22   ar
     3    22    23   ar
     4    23    19    1
     5    19    26    1
     6    26    27    2
     7    26    28   am
     8    28    30    1
     9    30    31    1
    10    30    32    1
    11    19     1    1
    12     1     2   am
    13     2     3    2
    14     2     4    1
    15     4    10    1
    16    10    11    1
    17    11    12    1
    18    12    13   ar
    19    13    14   ar
    20    14    15   ar
    21    15    16   ar
    22    16    17   ar
    23    17    18    1
    24     4     5    1
    25     5     6   am
    26     6     7    2
    27     6     8    1
    28     8    33    1
    29    33    34    1
    30    34    35    1
    31    34    36    1
    32    23    24   ar
    33    24    25   ar
    34    25    21   ar
    35     8     1    1
    36    18    10    1
    37    17    12   ar
    38    28    29    1
    39     5     9    1
@<TRIPOS>MOLECULE
*****
 36 39 0 0 0
SMALL
GASTEIGER

@<TRIPOS>ATOM
      1 N          62.5472   87.1788   11.8697 N.am    1  LEU1       -0.2603
      2 C          63.2397   88.4581   12.2357 C.2     2  UNK2        0.2444
      3 O          62.9634   89.7099   11.4566 O.2     2  UNK2       -0.2731
      4 C          64.2084   88.4856   13.3806 C.3     2  UNK2        0.1494
      5 N          64.4846   87.2339   14.1595 N.am    2  UNK2       -0.2970
      6 C          63.7921   85.9546   13.7935 C.2     1  LEU1        0.2409
      7 O          64.0683   84.7028   14.5726 O.2     1  LEU1       -0.2733
      8 CA         62.8234   85.9271   12.6487 C.3     1  LEU1        0.1524
      9 H          65.1204   87.2519   14.9110 H       2  UNK2        0.1499
     10 C          64.9009   89.7649   13.7465 C.3     2  UNK2        0.0356
     11 C          65.6469   90.0304   15.0204 C.3     2  UNK2        0.0285
     12 C          66.1761   91.4329   14.9640 C.ar    2  UNK2       -0.0261
     13 C          66.9853   92.2401   15.9353 C.ar    2  UNK2       -0.0046
     14 C          67.3755   93.6486   15.5979 C.ar    2  UNK2       -0.0003
     15 C          66.9564   94.2498   14.2891 C.ar    2  UNK2       -0.0003
     16 C          66.1471   93.4426   13.3178 C.ar    2  UNK2       -0.0046
     17 C          65.7570   92.0342   13.6553 C.ar    2  UNK2       -0.0261
     18 C          64.9689   91.0033   12.9028 C.3     2  UNK2        0.0285
     19 C          61.5785   87.1514   10.7247 C.3     0  UNK0        0.1960
     20 C          61.0785   84.4577    6.2109 C.3     0  UNK0        0.0950
     21 C          61.6737   85.1323    7.4111 C.ar    0  UNK0        0.2061
     22 N          60.9135   85.8524    8.4852 N.ar    0  UNK0       -0.2142
     23 C          61.9035   86.3705    9.4859 C.ar    0  UNK0        0.1262
     24 C          63.2755   85.9707    9.0303 C.ar    0  UNK0        0.1979
     25 O          63.1335   85.2054    7.7480 O.2     0  UNK0       -0.4355
     26 C          60.2848   87.9047   10.8186 C.2     0  UNK0        0.2465
     27 O          59.2561   87.7664    9.7357 O.2     0  UNK0       -0.2729
     28 N          60.0198   88.7964   11.9954 N.am    0  UNK0       -0.3043
     29 H          60.6950   88.8871   12.7061 H       0  UNK0        0.1494
     30 C          58.7261   89.5497   12.0893 C.3     0  UNK0        0.0717
     31 C          57.5127   88.8868   12.6707 C.3     0  UNK0        0.0213
     32 C          58.6459   90.9660   11.6017 C.3     0  UNK0        0.0213
     33 CB         62.1309   84.6478   12.2827 C.3     1  LEU1        0.0292
     34 CG         62.9323   83.4020   12.0471 C.3     1  LEU1        0.0021
     35 CD1        62.5338   82.1171   12.7107 C.3     1  LEU1        0.0001
     36 CD2        64.1324   83.4409   11.1479 C.3     1  LEU1        0.0001
@<TRIPOS>BOND
     1    20    21    1
     2    21    22   ar
     3    22    23   ar
     4    23    19    1
     5    19    26    1
     6    26    27    2
     7    26    28   am
     8    28    30    1
     9    30    31    1
    10    30    32    1
    11    19     1    1
    12     1     2   am
    13     2     3    2
    14     2     4    1
    15     4    10    1
    16    10    11    1
    17    11    12    1
    18    12    13   ar
    19    13    14   ar
    20    14    15   ar
    21    15    16   ar
    22    16    17   ar
    23    17    18    1
    24     4     5    1
    25     5     6   am
    26     6     7    2
    27     6     8    1
    28     8    33    1
    29    33    34    1
    30    34    35    1
    31    34    36    1
    32    23    24   ar
    33    24    25   ar
    34    25    21   ar
    35     8     1    1
    36    18    10    1
    37    17    12   ar
    38    28    29    1
    39     5     9    1
