@<TRIPOS>MOLECULE
*****
 32 34 0 0 0
SMALL
GASTEIGER

@<TRIPOS>ATOM
      1 C          65.5740   92.2070   12.8632 C.ar    1  UNL1        0.1508
      2 C          66.5071   91.7420   13.9417 C.ar    1  UNL1        0.0778
      3 CL         67.8033   92.4606   14.1732 Cl      1  UNL1       -0.0808
      4 C          66.1441   90.5585   14.7886 C.ar    1  UNL1        0.0142
      5 C          64.8479   89.8399   14.5571 C.ar    1  UNL1        0.0187
      6 C          63.9148   90.3049   13.4787 C.ar    1  UNL1        0.0870
      7 C          64.2778   91.4884   12.6318 C.ar    1  UNL1        0.1650
      8 O          63.3447   91.9535   11.5533 O.3     1  UNL1       -0.5032
      9 H          62.5350   91.5046   11.4086 H       1  UNL1        0.2923
     10 N          62.6186   89.5863   13.2472 N.am    1  UNL1       -0.2656
     11 C          62.2735   89.0848   11.8763 C.2     1  UNL1        0.3083
     12 O          63.2246   89.3019   10.7368 O.2     1  UNL1       -0.2521
     13 N          60.9774   88.3662   11.6448 N.am    1  UNL1       -0.2673
     14 H          61.9944   89.4438   13.9950 H       1  UNL1        0.1565
     15 H          60.3531   88.2237   12.3927 H       1  UNL1        0.1564
     16 C          60.6323   87.8647   10.2738 C.ar    1  UNL1        0.0630
     17 C          60.8337   86.4182    9.9317 C.ar    1  UNL1        0.0156
     18 C          60.4887   85.9167    8.5607 C.ar    1  UNL1        0.0022
     19 C          59.9422   86.8618    7.5320 C.ar    1  UNL1        0.0123
     20 C          59.7408   88.3083    7.8742 C.ar    1  UNL1        0.0694
     21 CL         59.1943   89.2533    6.8455 Cl      1  UNL1       -0.0813
     22 C          60.0858   88.8097    9.2451 C.ar    1  UNL1        0.0816
     23 CL         59.8844   90.2563    9.5874 Cl      1  UNL1       -0.0801
     24 S          65.9370   93.3906   12.0162 S.O2    1  UNL1        0.0121
     25 O          65.9791   92.5096   10.8030 O.2     1  UNL1       -0.1685
     26 O          65.8950   94.2717   13.2295 O.2     1  UNL1       -0.1685
     27 C          67.5401   96.3538    7.9506 C.3     1  UNL1        0.0897
     28 N          67.0369   95.9363    9.3005 N.3     1  UNL1       -0.2700
     29 C          66.6804   96.8549   10.4315 C.3     1  UNL1        0.0740
     30 C          66.2250   96.0131   11.5864 C.3     1  UNL1        0.0427
     31 C          66.3000   94.5742   11.1693 C.3     1  UNL1        0.1512
     32 C          66.8018   94.5267    9.7566 C.3     1  UNL1        0.0964
@<TRIPOS>BOND
     1    27    28    1
     2    28    29    1
     3    29    30    1
     4    30    31    1
     5    31    24    1
     6    24    25    2
     7    24    26    2
     8    24     1    1
     9     1     2   ar
    10     2     3    1
    11     2     4   ar
    12     4     5   ar
    13     5     6   ar
    14     6    10    1
    15    10    11   am
    16    11    12    2
    17    11    13   am
    18    13    16    1
    19    16    17   ar
    20    17    18   ar
    21    18    19   ar
    22    19    20   ar
    23    20    21    1
    24    20    22   ar
    25    22    23    1
    26     6     7   ar
    27     7     8    1
    28    31    32    1
    29    32    28    1
    30     7     1   ar
    31    22    16   ar
    32    10    14    1
    33    13    15    1
    34     8     9    1
@<TRIPOS>MOLECULE
*****
 32 34 0 0 0
SMALL
GASTEIGER

@<TRIPOS>ATOM
      1 C          61.8152   87.3448   10.8021 C.ar    1  UNL1        0.1508
      2 C          60.6027   87.6573    9.9761 C.ar    1  UNL1        0.0778
      3 CL         59.8388   86.5481    9.3158 Cl      1  UNL1       -0.0808
      4 C          60.1542   89.0791    9.8105 C.ar    1  UNL1        0.0142
      5 C          60.9181   90.1883   10.4709 C.ar    1  UNL1        0.0187
      6 C          62.1306   89.8758   11.2968 C.ar    1  UNL1        0.0870
      7 C          62.5791   88.4541   11.4624 C.ar    1  UNL1        0.1650
      8 O          63.7917   88.1415   12.2883 O.3     1  UNL1       -0.5032
      9 H          64.2689   88.8344   12.7008 H       1  UNL1        0.2923
     10 N          62.8945   90.9850   11.9571 N.am    1  UNL1       -0.2656
     11 C          63.8733   91.7979   11.1628 C.2     1  UNL1        0.3083
     12 O          64.0883   91.5017    9.7081 O.2     1  UNL1       -0.2521
     13 N          64.6373   92.9072   11.8231 N.am    1  UNL1       -0.2673
     14 H          62.7534   91.1794   12.9119 H       1  UNL1        0.1565
     15 H          64.4962   93.1016   12.7779 H       1  UNL1        0.1564
     16 C          65.6162   93.7201   11.0288 C.ar    1  UNL1        0.0630
     17 C          65.3071   95.1493   10.6943 C.ar    1  UNL1        0.0156
     18 C          66.2860   95.9622    9.8999 C.ar    1  UNL1        0.0022
     19 C          67.5739   95.3460    9.4400 C.ar    1  UNL1        0.0123
     20 C          67.8829   93.9167    9.7746 C.ar    1  UNL1        0.0694
     21 CL         69.1709   93.3004    9.3147 Cl      1  UNL1       -0.0813
     22 C          66.9041   93.1038   10.5689 C.ar    1  UNL1        0.0816
     23 CL         67.2131   91.6746   10.9035 Cl      1  UNL1       -0.0801
     24 S          62.2638   85.9230   10.9677 S.O2    1  UNL1        0.0121
     25 O          61.7825   85.9366   12.3883 O.2     1  UNL1       -0.1685
     26 O          62.7451   85.9095    9.5471 O.2     1  UNL1       -0.1685
     27 C          63.0586   81.1114   12.9917 C.3     1  UNL1        0.0897
     28 N          63.0777   82.2897   12.0636 N.3     1  UNL1       -0.2700
     29 C          63.7277   82.3374   10.7125 C.3     1  UNL1        0.0740
     30 C          63.5019   83.7043   10.1376 C.3     1  UNL1        0.0427
     31 C          62.7124   84.5013   11.1333 C.3     1  UNL1        0.1512
     32 C          62.4502   83.6271   12.3236 C.3     1  UNL1        0.0964
@<TRIPOS>BOND
     1    27    28    1
     2    28    29    1
     3    29    30    1
     4    30    31    1
     5    31    24    1
     6    24    25    2
     7    24    26    2
     8    24     1    1
     9     1     2   ar
    10     2     3    1
    11     2     4   ar
    12     4     5   ar
    13     5     6   ar
    14     6    10    1
    15    10    11   am
    16    11    12    2
    17    11    13   am
    18    13    16    1
    19    16    17   ar
    20    17    18   ar
    21    18    19   ar
    22    19    20   ar
    23    20    21    1
    24    20    22   ar
    25    22    23    1
    26     6     7   ar
    27     7     8    1
    28    31    32    1
    29    32    28    1
    30     7     1   ar
    31    22    16   ar
    32    10    14    1
    33    13    15    1
    34     8     9    1
@<TRIPOS>MOLECULE
*****
 32 34 0 0 0
SMALL
GASTEIGER

@<TRIPOS>ATOM
      1 C          61.5999   86.9572   10.4703 C.ar    1  UNL1        0.1508
      2 C          60.6247   87.2400    9.3663 C.ar    1  UNL1        0.0778
      3 CL         60.2129   86.1429    8.4299 Cl      1  UNL1       -0.0808
      4 C          60.0612   88.6200    9.1986 C.ar    1  UNL1        0.0142
      5 C          60.4730   89.7171   10.1349 C.ar    1  UNL1        0.0187
      6 C          61.4482   89.4343   11.2389 C.ar    1  UNL1        0.0870
      7 C          62.0116   88.0543   11.4066 C.ar    1  UNL1        0.1650
      8 O          62.9869   87.7714   12.5107 O.3     1  UNL1       -0.5032
      9 H          63.2442   88.4568   13.0956 H       1  UNL1        0.2923
     10 N          61.8600   90.5314   12.1753 N.am    1  UNL1       -0.2656
     11 C          63.3148   90.7972   12.4256 C.2     1  UNL1        0.3083
     12 O          64.3580   89.9658   11.7395 O.2     1  UNL1       -0.2521
     13 N          63.7266   91.8943   13.3619 N.am    1  UNL1       -0.2673
     14 H          61.1753   91.0771   12.6256 H       1  UNL1        0.1565
     15 H          63.0420   92.4400   13.8122 H       1  UNL1        0.1564
     16 C          65.1816   92.1601   13.6122 C.ar    1  UNL1        0.0630
     17 C          66.0990   92.4535   12.4623 C.ar    1  UNL1        0.0156
     18 C          67.5540   92.7192   12.7126 C.ar    1  UNL1        0.0022
     19 C          68.0914   92.6915   14.1127 C.ar    1  UNL1        0.0123
     20 C          67.1739   92.3981   15.2626 C.ar    1  UNL1        0.0694
     21 CL         67.7113   92.3704   16.6627 Cl      1  UNL1       -0.0813
     22 C          65.7190   92.1324   15.0123 C.ar    1  UNL1        0.0816
     23 CL         64.8015   91.8390   16.1622 Cl      1  UNL1       -0.0801
     24 S          62.1634   85.5772   10.6380 S.O2    1  UNL1        0.0121
     25 O          62.7766   85.6614    9.2717 O.2     1  UNL1       -0.1685
     26 O          61.5502   85.4929   12.0043 O.2     1  UNL1       -0.1685
     27 C          63.1735   80.7651   12.5627 C.3     1  UNL1        0.0897
     28 N          63.1911   81.9854   11.6905 N.3     1  UNL1       -0.2700
     29 C          63.9967   82.1619   10.4374 C.3     1  UNL1        0.0740
     30 C          63.7097   83.5289    9.8907 C.3     1  UNL1        0.0427
     31 C          62.7268   84.1972   10.8058 C.3     1  UNL1        0.1512
     32 C          62.4063   83.2432   11.9181 C.3     1  UNL1        0.0964
@<TRIPOS>BOND
     1    27    28    1
     2    28    29    1
     3    29    30    1
     4    30    31    1
     5    31    24    1
     6    24    25    2
     7    24    26    2
     8    24     1    1
     9     1     2   ar
    10     2     3    1
    11     2     4   ar
    12     4     5   ar
    13     5     6   ar
    14     6    10    1
    15    10    11   am
    16    11    12    2
    17    11    13   am
    18    13    16    1
    19    16    17   ar
    20    17    18   ar
    21    18    19   ar
    22    19    20   ar
    23    20    21    1
    24    20    22   ar
    25    22    23    1
    26     6     7   ar
    27     7     8    1
    28    31    32    1
    29    32    28    1
    30     7     1   ar
    31    22    16   ar
    32    10    14    1
    33    13    15    1
    34     8     9    1
@<TRIPOS>MOLECULE
*****
 32 34 0 0 0
SMALL
GASTEIGER

@<TRIPOS>ATOM
      1 C          62.5475   88.4967   11.6941 C.ar    1  UNL1        0.1508
      2 C          62.9445   87.3144   12.5275 C.ar    1  UNL1        0.0778
      3 CL         62.3806   85.9584   12.2223 Cl      1  UNL1       -0.0808
      4 C          63.9053   87.4882   13.6662 C.ar    1  UNL1        0.0142
      5 C          64.4692   88.8442   13.9714 C.ar    1  UNL1        0.0187
      6 C          64.0723   90.0265   13.1380 C.ar    1  UNL1        0.0870
      7 C          63.1114   89.8527   11.9993 C.ar    1  UNL1        0.1650
      8 O          62.7144   91.0351   11.1659 O.3     1  UNL1       -0.5032
      9 H          63.0667   91.8821   11.3565 H       1  UNL1        0.2923
     10 N          64.6362   91.3826   13.4432 N.am    1  UNL1       -0.2656
     11 C          65.1173   92.2631   12.3283 C.2     1  UNL1        0.3083
     12 O          65.0345   91.7876   10.9080 O.2     1  UNL1       -0.2521
     13 N          65.6812   93.6191   12.6335 N.am    1  UNL1       -0.2673
     14 H          64.6905   91.6946   14.3753 H       1  UNL1        0.1565
     15 H          65.7355   93.9312   13.5656 H       1  UNL1        0.1564
     16 C          66.1623   94.4997   11.5184 C.ar    1  UNL1        0.0630
     17 C          65.7449   95.9395   11.4664 C.ar    1  UNL1        0.0156
     18 C          66.2261   96.8200   10.3513 C.ar    1  UNL1        0.0022
     19 C          67.1245   96.2606    9.2884 C.ar    1  UNL1        0.0123
     20 C          67.5418   94.8208    9.3404 C.ar    1  UNL1        0.0694
     21 CL         68.4403   94.2614    8.2775 Cl      1  UNL1       -0.0813
     22 C          67.0607   93.9403   10.4554 C.ar    1  UNL1        0.0816
     23 CL         67.4781   92.5004   10.5075 Cl      1  UNL1       -0.0801
     24 S          61.5866   88.3230   10.5554 S.O2    1  UNL1        0.0121
     25 O          62.7357   88.2796    9.5923 O.2     1  UNL1       -0.1685
     26 O          60.4375   88.3663   11.5185 O.2     1  UNL1       -0.1685
     27 C          58.5445   89.3167    6.3556 C.3     1  UNL1        0.0897
     28 N          59.2274   88.6060    7.4864 N.3     1  UNL1       -0.2700
     29 C          59.0667   87.1578    7.8429 C.3     1  UNL1        0.0740
     30 C          59.9310   86.8756    9.0359 C.3     1  UNL1        0.0427
     31 C          60.6258   88.1492    9.4168 C.3     1  UNL1        0.1512
     32 C          60.1909   89.2187    8.4591 C.3     1  UNL1        0.0964
@<TRIPOS>BOND
     1    27    28    1
     2    28    29    1
     3    29    30    1
     4    30    31    1
     5    31    24    1
     6    24    25    2
     7    24    26    2
     8    24     1    1
     9     1     2   ar
    10     2     3    1
    11     2     4   ar
    12     4     5   ar
    13     5     6   ar
    14     6    10    1
    15    10    11   am
    16    11    12    2
    17    11    13   am
    18    13    16    1
    19    16    17   ar
    20    17    18   ar
    21    18    19   ar
    22    19    20   ar
    23    20    21    1
    24    20    22   ar
    25    22    23    1
    26     6     7   ar
    27     7     8    1
    28    31    32    1
    29    32    28    1
    30     7     1   ar
    31    22    16   ar
    32    10    14    1
    33    13    15    1
    34     8     9    1
@<TRIPOS>MOLECULE
*****
 32 34 0 0 0
SMALL
GASTEIGER

@<TRIPOS>ATOM
      1 C          64.2522   91.2363   12.2322 C.ar    1  UNL1        0.1508
      2 C          64.1745   91.9615   10.9215 C.ar    1  UNL1        0.0778
      3 CL         64.9787   93.2092   10.7058 Cl      1  UNL1       -0.0808
      4 C          63.2924   91.4391    9.8265 C.ar    1  UNL1        0.0142
      5 C          62.4881   90.1915   10.0422 C.ar    1  UNL1        0.0187
      6 C          62.5659   89.4663   11.3529 C.ar    1  UNL1        0.0870
      7 C          63.4479   89.9887   12.4479 C.ar    1  UNL1        0.1650
      8 O          63.5257   89.2635   13.7587 O.3     1  UNL1       -0.5032
      9 H          63.0233   88.4841   13.8935 H       1  UNL1        0.2923
     10 N          61.7616   88.2186   11.5687 N.am    1  UNL1       -0.2656
     11 C          62.4234   86.9825   12.1015 C.2     1  UNL1        0.3083
     12 O          63.8895   86.9939   12.4187 O.2     1  UNL1       -0.2521
     13 N          61.6191   85.7348   12.3172 N.am    1  UNL1       -0.2673
     14 H          60.7994   88.2111   11.3605 H       1  UNL1        0.1565
     15 H          60.6569   85.7273   12.1091 H       1  UNL1        0.1564
     16 C          62.2809   84.4986   12.8501 C.ar    1  UNL1        0.0630
     17 C          62.1398   84.1377   14.2991 C.ar    1  UNL1        0.0156
     18 C          62.8016   82.9015   14.8320 C.ar    1  UNL1        0.0022
     19 C          63.6045   82.0263   13.9158 C.ar    1  UNL1        0.0123
     20 C          63.7456   82.3873   12.4667 C.ar    1  UNL1        0.0694
     21 CL         64.5484   81.5122   11.5505 Cl      1  UNL1       -0.0813
     22 C          63.0838   83.6235   11.9339 C.ar    1  UNL1        0.0816
     23 CL         63.2248   83.9845   10.4848 Cl      1  UNL1       -0.0801
     24 S          65.1343   91.7588   13.3273 S.O2    1  UNL1        0.0121
     25 O          63.9411   91.8875   14.2270 O.2     1  UNL1       -0.1685
     26 O          66.3275   91.6300   12.4275 O.2     1  UNL1       -0.1685
     27 C          69.1179   94.1051   15.8780 C.3     1  UNL1        0.0897
     28 N          67.8474   93.3596   15.5947 N.3     1  UNL1       -0.2700
     29 C          66.9001   92.8104   16.6199 C.3     1  UNL1        0.0740
     30 C          65.7684   92.1439   15.8953 C.3     1  UNL1        0.0427
     31 C          66.0163   92.2811   14.4223 C.3     1  UNL1        0.1512
     32 C          67.3012   93.0325   14.2365 C.3     1  UNL1        0.0964
@<TRIPOS>BOND
     1    27    28    1
     2    28    29    1
     3    29    30    1
     4    30    31    1
     5    31    24    1
     6    24    25    2
     7    24    26    2
     8    24     1    1
     9     1     2   ar
    10     2     3    1
    11     2     4   ar
    12     4     5   ar
    13     5     6   ar
    14     6    10    1
    15    10    11   am
    16    11    12    2
    17    11    13   am
    18    13    16    1
    19    16    17   ar
    20    17    18   ar
    21    18    19   ar
    22    19    20   ar
    23    20    21    1
    24    20    22   ar
    25    22    23    1
    26     6     7   ar
    27     7     8    1
    28    31    32    1
    29    32    28    1
    30     7     1   ar
    31    22    16   ar
    32    10    14    1
    33    13    15    1
    34     8     9    1
