@<TRIPOS>MOLECULE
*****
 31 32 0 0 0
SMALL
GASTEIGER

@<TRIPOS>ATOM
      1 N          60.5828   87.9090    9.7202 N.3     1  UNL1       -0.2699
      2 C          59.2698   86.7728    7.7875 C.3     1  UNL1        0.0188
      3 C          59.7485   88.0153    8.4783 C.3     1  UNL1        0.0722
      4 C          62.0216   87.4957    9.6241 C.3     1  UNL1        0.0920
      5 C          62.3874   86.0413    9.6503 C.3     1  UNL1        0.0907
      6 C          62.9657   85.3912    8.4284 C.3     1  UNL1        0.0228
      7 N          62.1751   85.2368   10.8985 N.am    1  UNL1       -0.2709
      8 C          62.5604   85.8057   12.2318 C.2     1  UNL1        0.4020
      9 O          63.1579   87.1789   12.3171 O.2     1  UNL1       -0.2264
     10 H          61.7829   84.3356   10.8425 H       1  UNL1        0.1527
     11 O          62.3480   85.0013   13.4801 O.3     1  UNL1       -0.4291
     12 C          63.2691   83.8627   13.8044 C.3     1  UNL1        0.2447
     13 C          62.8878   82.4604   13.4326 C.ar    1  UNL1        0.0714
     14 C          63.3471   81.7153   12.2145 C.ar    1  UNL1        0.1053
     15 N          62.7234   80.3514   12.2428 N.ar    1  UNL1       -0.2350
     16 C          61.8786   80.2536   13.4784 C.ar    1  UNL1        0.1343
     17 S          61.9802   81.5570   14.2138 S.2     1  UNL1       -0.0652
     18 C          59.9784   88.2160   11.0583 C.3     1  UNL1        0.0920
     19 C          60.2304   89.5442   11.7082 C.3     1  UNL1        0.0907
     20 C          59.2988   90.6920   11.4545 C.3     1  UNL1        0.0228
     21 N          61.4141   89.7245   12.6117 N.am    1  UNL1       -0.2709
     22 C          62.6369   90.4358   12.1129 C.2     1  UNL1        0.4020
     23 O          62.6760   90.9667   10.7106 O.2     1  UNL1       -0.2264
     24 H          61.3884   89.3760   13.5321 H       1  UNL1        0.1527
     25 O          63.8206   90.6161   13.0165 O.3     1  UNL1       -0.4274
     26 C          64.8019   91.7203   12.7556 C.3     1  UNL1        0.2621
     27 C          65.8221   92.0780   13.7955 C.ar    1  UNL1        0.1323
     28 N          65.5359   92.4500   15.2201 N.ar    1  UNL1       -0.2374
     29 C          66.8445   92.7286   15.8983 C.ar    1  UNL1        0.1062
     30 C          67.9394   92.5287   14.8928 C.ar    1  UNL1        0.0573
     31 S          67.3075   92.1267   13.5932 S.2     1  UNL1       -0.0666
@<TRIPOS>BOND
     1     2     3    1
     2     3     1    1
     3     1     4    1
     4     4     5    1
     5     5     6    1
     6     5     7    1
     7     7     8   am
     8     8     9    2
     9     8    11    1
    10    11    12    1
    11    12    13    1
    12    13    14   ar
    13    14    15   ar
    14    15    16   ar
    15    16    17   ar
    16     1    18    1
    17    18    19    1
    18    19    20    1
    19    19    21    1
    20    21    22   am
    21    22    23    2
    22    22    25    1
    23    25    26    1
    24    26    27    1
    25    27    28   ar
    26    28    29   ar
    27    29    30   ar
    28    30    31   ar
    29    17    13   ar
    30    31    27   ar
    31     7    10    1
    32    21    24    1
@<TRIPOS>MOLECULE
*****
 31 32 0 0 0
SMALL
GASTEIGER

@<TRIPOS>ATOM
      1 N          60.6244   88.1607    9.4317 N.3     1  UNL1       -0.2699
      2 C          59.0601   87.0468    7.6818 C.3     1  UNL1        0.0188
      3 C          59.7970   88.2529    8.1840 C.3     1  UNL1        0.0722
      4 C          61.4341   89.3398    9.8836 C.3     1  UNL1        0.0920
      5 C          61.0211   90.1104   11.1025 C.3     1  UNL1        0.0907
      6 C          59.5851   90.5003   11.2923 C.3     1  UNL1        0.0228
      7 N          62.0440   90.4910   12.1314 N.am    1  UNL1       -0.2709
      8 C          63.2607   91.2694   11.7271 C.2     1  UNL1        0.4020
      9 O          63.4546   91.6672   10.2938 O.2     1  UNL1       -0.2264
     10 H          61.9167   90.2300   13.0721 H       1  UNL1        0.1527
     11 O          64.2837   91.6502   12.7560 O.3     1  UNL1       -0.4291
     12 C          65.5396   92.3567   12.3394 C.3     1  UNL1        0.2447
     13 C          66.6433   92.5723   13.3321 C.ar    1  UNL1        0.0714
     14 C          67.9984   91.9301   13.2972 C.ar    1  UNL1        0.1053
     15 N          68.7782   92.4290   14.4775 N.ar    1  UNL1       -0.2350
     16 C          67.9050   93.3794   15.2418 C.ar    1  UNL1        0.1343
     17 S          66.5856   93.4680   14.5339 S.2     1  UNL1       -0.0652
     18 C          60.6422   86.8893   10.2275 C.3     1  UNL1        0.0920
     19 C          61.8540   86.0056   10.2025 C.3     1  UNL1        0.0907
     20 C          62.6201   85.8196    8.9264 C.3     1  UNL1        0.0228
     21 N          62.2996   85.3081   11.4534 N.am    1  UNL1       -0.2709
     22 C          62.9562   86.0880   12.5537 C.2     1  UNL1        0.4020
     23 O          63.1671   87.5654   12.4030 O.2     1  UNL1       -0.2264
     24 H          62.1612   84.3384   11.5523 H       1  UNL1        0.1527
     25 O          63.4018   85.3905   13.8047 O.3     1  UNL1       -0.4274
     26 C          64.2014   84.1246   13.7132 C.3     1  UNL1        0.2621
     27 C          63.5029   82.8055   13.5654 C.ar    1  UNL1        0.1323
     28 N          62.6092   82.1619   14.5839 N.ar    1  UNL1       -0.2374
     29 C          62.1294   80.8570   14.0210 C.ar    1  UNL1        0.1062
     30 C          62.7265   80.6940   12.6547 C.ar    1  UNL1        0.0573
     31 S          63.5753   81.8982   12.3731 S.2     1  UNL1       -0.0666
@<TRIPOS>BOND
     1     2     3    1
     2     3     1    1
     3     1     4    1
     4     4     5    1
     5     5     6    1
     6     5     7    1
     7     7     8   am
     8     8     9    2
     9     8    11    1
    10    11    12    1
    11    12    13    1
    12    13    14   ar
    13    14    15   ar
    14    15    16   ar
    15    16    17   ar
    16     1    18    1
    17    18    19    1
    18    19    20    1
    19    19    21    1
    20    21    22   am
    21    22    23    2
    22    22    25    1
    23    25    26    1
    24    26    27    1
    25    27    28   ar
    26    28    29   ar
    27    29    30   ar
    28    30    31   ar
    29    17    13   ar
    30    31    27   ar
    31     7    10    1
    32    21    24    1
@<TRIPOS>MOLECULE
*****
 31 32 0 0 0
SMALL
GASTEIGER

@<TRIPOS>ATOM
      1 N          60.6481   87.8975    9.7093 N.3     1  UNL1       -0.2699
      2 C          59.2217   86.8601    7.8017 C.3     1  UNL1        0.0188
      3 C          59.8106   88.0636    8.4761 C.3     1  UNL1        0.0722
      4 C          62.0582   87.3987    9.5969 C.3     1  UNL1        0.0920
      5 C          62.3337   85.9243    9.5873 C.3     1  UNL1        0.0907
      6 C          62.7297   85.2436    8.3107 C.3     1  UNL1        0.0228
      7 N          62.2132   85.1306   10.8544 N.am    1  UNL1       -0.2709
      8 C          63.1437   83.9825   11.1115 C.2     1  UNL1        0.4020
      9 O          64.1946   83.6281   10.1016 O.2     1  UNL1       -0.2264
     10 H          61.5235   85.3632   11.5173 H       1  UNL1        0.1527
     11 O          63.0232   83.1887   12.3786 O.3     1  UNL1       -0.4291
     12 C          63.9568   83.4549   13.5221 C.3     1  UNL1        0.2447
     13 C          63.5075   84.3023   14.6754 C.ar    1  UNL1        0.0714
     14 C          62.1998   84.1829   15.4004 C.ar    1  UNL1        0.1053
     15 N          62.1712   85.2246   16.4793 N.ar    1  UNL1       -0.2350
     16 C          63.4612   85.9878   16.4211 C.ar    1  UNL1        0.1343
     17 S          64.2871   85.4178   15.3062 S.2     1  UNL1       -0.0652
     18 C          60.0753   88.2303   11.0552 C.3     1  UNL1        0.0920
     19 C          60.3289   89.5767   11.6661 C.3     1  UNL1        0.0907
     20 C          59.3396   90.6871   11.4708 C.3     1  UNL1        0.0228
     21 N          61.5716   89.8124   12.4723 N.am    1  UNL1       -0.2709
     22 C          62.7871   90.4030   11.8213 C.2     1  UNL1        0.4020
     23 O          62.7598   90.7578   10.3642 O.2     1  UNL1       -0.2264
     24 H          61.5895   89.5795   13.4287 H       1  UNL1        0.1527
     25 O          64.0299   90.6388   12.6275 O.3     1  UNL1       -0.4274
     26 C          64.7357   91.9600   12.5484 C.3     1  UNL1        0.2621
     27 C          65.7554   92.3288   13.5848 C.ar    1  UNL1        0.1323
     28 N          66.2043   93.7191   13.9246 N.ar    1  UNL1       -0.2374
     29 C          67.2316   93.6215   15.0132 C.ar    1  UNL1        0.1062
     30 C          67.4176   92.1709   15.3462 C.ar    1  UNL1        0.0573
     31 S          66.5053   91.3719   14.4635 S.2     1  UNL1       -0.0666
@<TRIPOS>BOND
     1     2     3    1
     2     3     1    1
     3     1     4    1
     4     4     5    1
     5     5     6    1
     6     5     7    1
     7     7     8   am
     8     8     9    2
     9     8    11    1
    10    11    12    1
    11    12    13    1
    12    13    14   ar
    13    14    15   ar
    14    15    16   ar
    15    16    17   ar
    16     1    18    1
    17    18    19    1
    18    19    20    1
    19    19    21    1
    20    21    22   am
    21    22    23    2
    22    22    25    1
    23    25    26    1
    24    26    27    1
    25    27    28   ar
    26    28    29   ar
    27    29    30   ar
    28    30    31   ar
    29    17    13   ar
    30    31    27   ar
    31     7    10    1
    32    21    24    1
@<TRIPOS>MOLECULE
*****
 31 32 0 0 0
SMALL
GASTEIGER

@<TRIPOS>ATOM
      1 N          60.9555   87.9172    9.4325 N.3     1  UNL1       -0.2699
      2 C          59.0556   87.1071    7.8564 C.3     1  UNL1        0.0188
      3 C          59.9865   88.1880    8.3201 C.3     1  UNL1        0.0722
      4 C          61.9793   88.9488    9.8033 C.3     1  UNL1        0.0920
      5 C          61.6104   90.0749   10.7230 C.3     1  UNL1        0.0907
      6 C          60.1693   90.3395   11.0441 C.3     1  UNL1        0.0228
      7 N          62.6826   90.9362   11.3217 N.am    1  UNL1       -0.2709
      8 C          63.0585   90.7716   12.7644 C.2     1  UNL1        0.4020
      9 O          62.3622   89.7456   13.6085 O.2     1  UNL1       -0.2264
     10 H          63.1396   91.6096   10.7677 H       1  UNL1        0.1527
     11 O          64.1307   91.6329   13.3632 O.3     1  UNL1       -0.4291
     12 C          65.0295   91.0795   14.4290 C.3     1  UNL1        0.2447
     13 C          66.2589   91.8344   14.8397 C.ar    1  UNL1        0.0714
     14 C          66.4032   92.6828   16.0683 C.ar    1  UNL1        0.1053
     15 N          67.7934   93.2461   16.0819 N.ar    1  UNL1       -0.2350
     16 C          68.5082   92.7459   14.8617 C.ar    1  UNL1        0.1343
     17 S          67.5598   91.8733   14.0940 S.2     1  UNL1       -0.0652
     18 C          60.9007   86.6144   10.1743 C.3     1  UNL1        0.0920
     19 C          62.0290   85.6336   10.0518 C.3     1  UNL1        0.0907
     20 C          62.7551   85.4849    8.7478 C.3     1  UNL1        0.0228
     21 N          62.4310   84.8016   11.2333 N.am    1  UNL1       -0.2709
     22 C          63.0122   85.4584   12.4502 C.2     1  UNL1        0.4020
     23 O          63.1912   86.9472   12.4855 O.2     1  UNL1       -0.2264
     24 H          62.3135   83.8244   11.2101 H       1  UNL1        0.1527
     25 O          63.4143   84.6263   13.6318 O.3     1  UNL1       -0.4274
     26 C          64.2998   85.2092   14.6930 C.3     1  UNL1        0.2621
     27 C          63.7138   86.0836   15.7617 C.ar    1  UNL1        0.1323
     28 N          63.7295   87.5834   15.7806 N.ar    1  UNL1       -0.2374
     29 C          63.0347   88.0385   17.0297 C.ar    1  UNL1        0.1062
     30 C          62.5896   86.8199   17.7827 C.ar    1  UNL1        0.0573
     31 S          63.0093   85.6118   16.9990 S.2     1  UNL1       -0.0666
@<TRIPOS>BOND
     1     2     3    1
     2     3     1    1
     3     1     4    1
     4     4     5    1
     5     5     6    1
     6     5     7    1
     7     7     8   am
     8     8     9    2
     9     8    11    1
    10    11    12    1
    11    12    13    1
    12    13    14   ar
    13    14    15   ar
    14    15    16   ar
    15    16    17   ar
    16     1    18    1
    17    18    19    1
    18    19    20    1
    19    19    21    1
    20    21    22   am
    21    22    23    2
    22    22    25    1
    23    25    26    1
    24    26    27    1
    25    27    28   ar
    26    28    29   ar
    27    29    30   ar
    28    30    31   ar
    29    17    13   ar
    30    31    27   ar
    31     7    10    1
    32    21    24    1
@<TRIPOS>MOLECULE
*****
 31 32 0 0 0
SMALL
GASTEIGER

@<TRIPOS>ATOM
      1 N          60.9090   87.8328    9.7706 N.3     1  UNL1       -0.2699
      2 C          59.3388   86.7747    7.9916 C.3     1  UNL1        0.0188
      3 C          59.9557   87.9875    8.6229 C.3     1  UNL1        0.0722
      4 C          61.8677   88.9375   10.1034 C.3     1  UNL1        0.0920
      5 C          61.4435   90.0486   11.0174 C.3     1  UNL1        0.0907
      6 C          60.0031   90.1859   11.4128 C.3     1  UNL1        0.0228
      7 N          62.4597   91.0225   11.5360 N.am    1  UNL1       -0.2709
      8 C          62.9988   90.8738   12.9278 C.2     1  UNL1        0.4020
      9 O          62.5218   89.7514   13.8010 O.2     1  UNL1       -0.2264
     10 H          62.7728   91.7592   10.9629 H       1  UNL1        0.1527
     11 O          64.0150   91.8477   13.4465 O.3     1  UNL1       -0.4291
     12 C          65.4334   91.7803   12.9632 C.3     1  UNL1        0.2447
     13 C          65.9627   92.8386   12.0413 C.ar    1  UNL1        0.0714
     14 C          66.2670   94.2596   12.4127 C.ar    1  UNL1        0.1053
     15 N          66.7730   94.9609   11.1871 N.ar    1  UNL1       -0.2350
     16 C          66.7815   93.9732   10.0581 C.ar    1  UNL1        0.1343
     17 S          66.2807   92.6615   10.5861 S.2     1  UNL1       -0.0652
     18 C          60.9037   86.5734   10.5854 C.3     1  UNL1        0.0920
     19 C          62.0455   85.6064   10.4790 C.3     1  UNL1        0.0907
     20 C          62.7179   85.3826    9.1570 C.3     1  UNL1        0.0228
     21 N          62.5149   84.8634   11.6945 N.am    1  UNL1       -0.2709
     22 C          63.1927   85.6024   12.8101 C.2     1  UNL1        0.4020
     23 O          63.4010   87.0844   12.7100 O.2     1  UNL1       -0.2264
     24 H          62.3781   83.8906   11.7601 H       1  UNL1        0.1527
     25 O          63.6620   84.8593   14.0256 O.3     1  UNL1       -0.4274
     26 C          64.2454   83.4845   13.8854 C.3     1  UNL1        0.2621
     27 C          63.3406   82.2983   13.7295 C.ar    1  UNL1        0.1323
     28 N          63.5982   81.1007   12.8638 N.ar    1  UNL1       -0.2374
     29 C          62.4363   80.1637   13.0112 C.ar    1  UNL1        0.1062
     30 C          61.4605   80.7821   13.9680 C.ar    1  UNL1        0.0573
     31 S          62.0195   82.1013   14.4119 S.2     1  UNL1       -0.0666
@<TRIPOS>BOND
     1     2     3    1
     2     3     1    1
     3     1     4    1
     4     4     5    1
     5     5     6    1
     6     5     7    1
     7     7     8   am
     8     8     9    2
     9     8    11    1
    10    11    12    1
    11    12    13    1
    12    13    14   ar
    13    14    15   ar
    14    15    16   ar
    15    16    17   ar
    16     1    18    1
    17    18    19    1
    18    19    20    1
    19    19    21    1
    20    21    22   am
    21    22    23    2
    22    22    25    1
    23    25    26    1
    24    26    27    1
    25    27    28   ar
    26    28    29   ar
    27    29    30   ar
    28    30    31   ar
    29    17    13   ar
    30    31    27   ar
    31     7    10    1
    32    21    24    1
@<TRIPOS>MOLECULE
*****
 31 32 0 0 0
SMALL
GASTEIGER

@<TRIPOS>ATOM
      1 N          61.4597   88.8540   10.8850 N.3     1  UNL1       -0.2699
      2 C          59.5270   90.5330   11.3271 C.3     1  UNL1        0.0188
      3 C          60.1637   89.1948   11.5589 C.3     1  UNL1        0.0722
      4 C          61.4687   88.4354    9.4446 C.3     1  UNL1        0.0920
      5 C          61.1098   87.0279    9.0703 C.3     1  UNL1        0.0907
      6 C          59.7307   86.7131    8.5711 C.3     1  UNL1        0.0228
      7 N          62.1298   85.9352    9.1953 N.am    1  UNL1       -0.2709
      8 C          62.3483   85.2609   10.5172 C.2     1  UNL1        0.4020
      9 O          61.5468   85.6791   11.7141 O.2     1  UNL1       -0.2264
     10 H          62.6558   85.6607    8.4097 H       1  UNL1        0.1527
     11 O          63.3683   84.1682   10.6422 O.3     1  UNL1       -0.4291
     12 C          63.8937   83.7835   11.9935 C.3     1  UNL1        0.2447
     13 C          63.4755   82.4861   12.6193 C.ar    1  UNL1        0.0714
     14 C          63.7063   82.0799   14.0447 C.ar    1  UNL1        0.1053
     15 N          63.1265   80.7098   14.2359 N.ar    1  UNL1       -0.2350
     16 C          62.5373   80.2692   12.9287 C.ar    1  UNL1        0.1343
     17 S          62.7530   81.3670   11.9296 S.2     1  UNL1       -0.0652
     18 C          62.7468   88.9318   11.6515 C.3     1  UNL1        0.0920
     19 C          63.0221   90.1106   12.5373 C.3     1  UNL1        0.0907
     20 C          63.6956   91.3283   11.9774 C.3     1  UNL1        0.0228
     21 N          62.6239   90.0716   13.9830 N.am    1  UNL1       -0.2709
     22 C          63.6669   90.2096   15.0522 C.2     1  UNL1        0.4020
     23 O          65.1080   90.3866   14.6756 O.2     1  UNL1       -0.2264
     24 H          61.6781   89.9555   14.2301 H       1  UNL1        0.1527
     25 O          63.2688   90.1707   16.4978 O.3     1  UNL1       -0.4274
     26 C          63.0300   88.8535   17.1747 C.3     1  UNL1        0.2621
     27 C          63.3594   87.5744   16.4638 C.ar    1  UNL1        0.1323
     28 N          64.0754   87.4544   15.1512 N.ar    1  UNL1       -0.2374
     29 C          64.1891   85.9966   14.8168 C.ar    1  UNL1        0.1062
     30 C          63.5434   85.2156   15.9228 C.ar    1  UNL1        0.0573
     31 S          63.0307   86.1908   16.9406 S.2     1  UNL1       -0.0666
@<TRIPOS>BOND
     1     2     3    1
     2     3     1    1
     3     1     4    1
     4     4     5    1
     5     5     6    1
     6     5     7    1
     7     7     8   am
     8     8     9    2
     9     8    11    1
    10    11    12    1
    11    12    13    1
    12    13    14   ar
    13    14    15   ar
    14    15    16   ar
    15    16    17   ar
    16     1    18    1
    17    18    19    1
    18    19    20    1
    19    19    21    1
    20    21    22   am
    21    22    23    2
    22    22    25    1
    23    25    26    1
    24    26    27    1
    25    27    28   ar
    26    28    29   ar
    27    29    30   ar
    28    30    31   ar
    29    17    13   ar
    30    31    27   ar
    31     7    10    1
    32    21    24    1
@<TRIPOS>MOLECULE
*****
 31 32 0 0 0
SMALL
GASTEIGER

@<TRIPOS>ATOM
      1 N          61.0075   87.5715    9.3701 N.3     1  UNL1       -0.2699
      2 C          59.0345   86.7731    7.8801 C.3     1  UNL1        0.0188
      3 C          60.0327   87.8267    8.2590 C.3     1  UNL1        0.0722
      4 C          60.9735   86.2689   10.1132 C.3     1  UNL1        0.0920
      5 C          62.1960   85.4010   10.1616 C.3     1  UNL1        0.0907
      6 C          63.0048   85.1748    8.9188 C.3     1  UNL1        0.0228
      7 N          62.6095   84.7593   11.4528 N.am    1  UNL1       -0.2709
      8 C          63.0795   85.6092   12.5959 C.2     1  UNL1        0.4020
      9 O          63.1359   87.1008   12.4478 O.2     1  UNL1       -0.2264
     10 H          62.5725   83.7803   11.5500 H       1  UNL1        0.1527
     11 O          63.4931   84.9676   13.8871 O.3     1  UNL1       -0.4291
     12 C          64.0935   83.5930   13.8831 C.3     1  UNL1        0.2447
     13 C          63.2058   82.3872   13.7939 C.ar    1  UNL1        0.0714
     14 C          61.8890   82.2083   14.4896 C.ar    1  UNL1        0.1053
     15 N          61.3484   80.8591   14.1190 N.ar    1  UNL1       -0.2350
     16 C          62.3312   80.2040   13.1942 C.ar    1  UNL1        0.1343
     17 S          63.4791   81.1485   12.9933 S.2     1  UNL1       -0.0652
     18 C          62.0163   88.6189    9.7381 C.3     1  UNL1        0.0920
     19 C          61.5636   89.9220   10.3273 C.3     1  UNL1        0.0907
     20 C          60.2197   90.0204   10.9864 C.3     1  UNL1        0.0228
     21 N          62.4547   91.1265   10.2574 N.am    1  UNL1       -0.2709
     22 C          63.5157   91.3359   11.2968 C.2     1  UNL1        0.4020
     23 O          63.6855   90.3407   12.4062 O.2     1  UNL1       -0.2264
     24 H          62.3432   91.7797    9.5293 H       1  UNL1        0.1527
     25 O          64.4068   92.5405   11.2269 O.3     1  UNL1       -0.4274
     26 C          65.8506   92.4290   11.6184 C.3     1  UNL1        0.2621
     27 C          66.9234   92.8260   10.6481 C.ar    1  UNL1        0.1323
     28 N          68.2148   92.0991   10.4156 N.ar    1  UNL1       -0.2374
     29 C          68.9828   92.8434    9.3638 C.ar    1  UNL1        0.1062
     30 C          68.1661   94.0303    8.9464 C.ar    1  UNL1        0.0573
     31 S          66.8934   94.0195    9.7401 S.2     1  UNL1       -0.0666
@<TRIPOS>BOND
     1     2     3    1
     2     3     1    1
     3     1     4    1
     4     4     5    1
     5     5     6    1
     6     5     7    1
     7     7     8   am
     8     8     9    2
     9     8    11    1
    10    11    12    1
    11    12    13    1
    12    13    14   ar
    13    14    15   ar
    14    15    16   ar
    15    16    17   ar
    16     1    18    1
    17    18    19    1
    18    19    20    1
    19    19    21    1
    20    21    22   am
    21    22    23    2
    22    22    25    1
    23    25    26    1
    24    26    27    1
    25    27    28   ar
    26    28    29   ar
    27    29    30   ar
    28    30    31   ar
    29    17    13   ar
    30    31    27   ar
    31     7    10    1
    32    21    24    1
@<TRIPOS>MOLECULE
*****
 31 32 0 0 0
SMALL
GASTEIGER

@<TRIPOS>ATOM
      1 N          64.3843   91.7023   11.7419 N.3     1  UNL1       -0.2699
      2 C          65.6431   93.6618   10.5904 C.3     1  UNL1        0.0188
      3 C          65.6666   92.3336   11.2870 C.3     1  UNL1        0.0722
      4 C          63.4602   91.0756   10.7402 C.3     1  UNL1        0.0920
      5 C          62.2864   90.2663   11.2063 C.3     1  UNL1        0.0907
      6 C          60.8908   90.7385   10.9253 C.3     1  UNL1        0.0228
      7 N          62.5084   88.9847   11.9535 N.am    1  UNL1       -0.2709
      8 C          62.4204   87.6719   11.2333 C.2     1  UNL1        0.4020
      9 O          62.1105   87.6406    9.7660 O.2     1  UNL1       -0.2264
     10 H          62.7118   89.0052   12.9165 H       1  UNL1        0.1527
     11 O          62.6423   86.3902   11.9804 O.3     1  UNL1       -0.4291
     12 C          62.0195   85.1175   11.4881 C.3     1  UNL1        0.2447
     13 C          62.8740   83.9081   11.2486 C.ar    1  UNL1        0.0714
     14 C          63.9331   83.7714   10.1953 C.ar    1  UNL1        0.1053
     15 N          64.5329   82.4018   10.3162 N.ar    1  UNL1       -0.2350
     16 C          63.8445   81.6922   11.4443 C.ar    1  UNL1        0.1343
     17 S          62.8192   82.6231   12.0205 S.2     1  UNL1       -0.0652
     18 C          64.0260   91.6977   13.1985 C.3     1  UNL1        0.0920
     19 C          64.7181   90.7554   14.1382 C.3     1  UNL1        0.0907
     20 C          66.1701   90.9495   14.4605 C.3     1  UNL1        0.0228
     21 N          63.9582   89.6190   14.7555 N.am    1  UNL1       -0.2709
     22 C          63.2073   89.8273   16.0372 C.2     1  UNL1        0.4020
     23 O          63.2164   91.1722   16.7015 O.2     1  UNL1       -0.2264
     24 H          63.9523   88.7363   14.3194 H       1  UNL1        0.1527
     25 O          62.4474   88.6909   16.6545 O.3     1  UNL1       -0.4274
     26 C          63.1847   87.5017   17.1951 C.3     1  UNL1        0.2621
     27 C          63.2201   86.2222   16.4130 C.ar    1  UNL1        0.1323
     28 N          62.1841   85.1381   16.4487 N.ar    1  UNL1       -0.2374
     29 C          62.6216   84.0481   15.5157 C.ar    1  UNL1        0.1062
     30 C          63.9279   84.4586   14.9034 C.ar    1  UNL1        0.0573
     31 S          64.2978   85.8022   15.4580 S.2     1  UNL1       -0.0666
@<TRIPOS>BOND
     1     2     3    1
     2     3     1    1
     3     1     4    1
     4     4     5    1
     5     5     6    1
     6     5     7    1
     7     7     8   am
     8     8     9    2
     9     8    11    1
    10    11    12    1
    11    12    13    1
    12    13    14   ar
    13    14    15   ar
    14    15    16   ar
    15    16    17   ar
    16     1    18    1
    17    18    19    1
    18    19    20    1
    19    19    21    1
    20    21    22   am
    21    22    23    2
    22    22    25    1
    23    25    26    1
    24    26    27    1
    25    27    28   ar
    26    28    29   ar
    27    29    30   ar
    28    30    31   ar
    29    17    13   ar
    30    31    27   ar
    31     7    10    1
    32    21    24    1
@<TRIPOS>MOLECULE
*****
 31 32 0 0 0
SMALL
GASTEIGER

@<TRIPOS>ATOM
      1 N          63.8342   87.1152   15.5731 N.3     1  UNL1       -0.2699
      2 C          62.6243   86.4105   17.7616 C.3     1  UNL1        0.0188
      3 C          63.1143   87.4845   16.8361 C.3     1  UNL1        0.0722
      4 C          64.2292   88.1822   14.5955 C.3     1  UNL1        0.0920
      5 C          64.3823   89.6016   15.0557 C.3     1  UNL1        0.0907
      6 C          63.3979   90.1861   16.0249 C.3     1  UNL1        0.0228
      7 N          65.5198   90.4365   14.5468 N.am    1  UNL1       -0.2709
      8 C          65.2621   91.5270   13.5496 C.2     1  UNL1        0.4020
      9 O          63.8670   91.7827   13.0615 O.2     1  UNL1       -0.2264
     10 H          66.4354   90.2687   14.8672 H       1  UNL1        0.1527
     11 O          66.3996   92.3620   13.0406 O.3     1  UNL1       -0.4291
     12 C          66.1419   93.4528   12.0437 C.3     1  UNL1        0.2447
     13 C          66.8843   93.4683   10.7404 C.ar    1  UNL1        0.0714
     14 C          66.8865   94.5862    9.7403 C.ar    1  UNL1        0.1053
     15 N          67.7584   94.1775    8.5902 N.ar    1  UNL1       -0.2350
     16 C          68.2950   92.8069    8.8795 C.ar    1  UNL1        0.1343
     17 S          67.7547   92.3686   10.2084 S.2     1  UNL1       -0.0652
     18 C          64.1593   85.6789   15.2877 C.3     1  UNL1        0.0920
     19 C          63.1782   84.8212   14.5448 C.3     1  UNL1        0.0907
     20 C          62.6911   83.5397   15.1534 C.3     1  UNL1        0.0228
     21 N          62.6843   85.2451   13.1934 N.am    1  UNL1       -0.2709
     22 C          63.2051   84.5704   11.9590 C.2     1  UNL1        0.4020
     23 O          64.2198   83.4720   12.0761 O.2     1  UNL1       -0.2264
     24 H          62.0183   85.9660   13.1165 H       1  UNL1        0.1527
     25 O          62.7111   84.9943   10.6075 O.3     1  UNL1       -0.4274
     26 C          61.4335   85.7707   10.4856 C.3     1  UNL1        0.2621
     27 C          61.4577   87.2692   10.5477 C.ar    1  UNL1        0.1323
     28 N          61.9764   88.0962   11.6866 N.ar    1  UNL1       -0.2374
     29 C          61.8068   89.5419   11.3245 C.ar    1  UNL1        0.1062
     30 C          61.1834   89.6085    9.9618 C.ar    1  UNL1        0.0573
     31 S          60.9676   88.2039    9.4818 S.2     1  UNL1       -0.0666
@<TRIPOS>BOND
     1     2     3    1
     2     3     1    1
     3     1     4    1
     4     4     5    1
     5     5     6    1
     6     5     7    1
     7     7     8   am
     8     8     9    2
     9     8    11    1
    10    11    12    1
    11    12    13    1
    12    13    14   ar
    13    14    15   ar
    14    15    16   ar
    15    16    17   ar
    16     1    18    1
    17    18    19    1
    18    19    20    1
    19    19    21    1
    20    21    22   am
    21    22    23    2
    22    22    25    1
    23    25    26    1
    24    26    27    1
    25    27    28   ar
    26    28    29   ar
    27    29    30   ar
    28    30    31   ar
    29    17    13   ar
    30    31    27   ar
    31     7    10    1
    32    21    24    1
