@<TRIPOS>MOLECULE
*****
 35 38 0 0 0
SMALL
GASTEIGER

@<TRIPOS>ATOM
      1 C          64.8100   88.0659   14.7779 C.3     1  UNL1        0.0328
      2 C          64.0748   88.7192   13.6453 C.ar    1  UNL1        0.0002
      3 C          64.1593   90.2045   13.4540 C.ar    1  UNL1        0.0774
      4 N          63.4243   90.8579   12.3214 N.ar    1  UNL1       -0.2457
      5 C          62.6047   90.0258   11.3800 C.ar    1  UNL1        0.0814
      6 C          61.8696   90.6791   10.2474 C.ar    1  UNL1        0.0188
      7 C          61.0501   89.8471    9.3062 C.ar    1  UNL1       -0.0027
      8 C          60.9656   88.3618    9.4975 C.ar    1  UNL1       -0.0227
      9 C          61.7006   87.7085   10.6301 C.ar    1  UNL1       -0.0027
     10 C          62.5202   88.5405   11.5713 C.ar    1  UNL1        0.0215
     11 C          63.2553   87.8872   12.7040 C.ar    1  UNL1        0.0526
     12 C          64.9789   91.0366   14.3953 C.ar    1  UNL1        0.0173
     13 C          66.3845   91.4143   14.0327 C.ar    1  UNL1        0.0015
     14 C          67.2041   92.2463   14.9740 C.ar    1  UNL1        0.0000
     15 C          66.6180   92.7005   16.2779 C.ar    1  UNL1        0.0000
     16 C          65.2124   92.3228   16.6405 C.ar    1  UNL1        0.0000
     17 C          64.3928   91.4908   15.6992 C.ar    1  UNL1        0.0015
     18 C          60.1460   87.5297    8.5561 C.3     1  UNL1        0.0189
     19 C          60.6556   86.2823    9.2150 C.3     1  UNL1        0.0044
     20 C          59.6364   88.7772    7.8973 C.3     1  UNL1        0.0044
     21 C          59.3264   86.6978    7.6148 C.3     1  UNL1        0.0044
     22 C          63.1708   86.4018   12.8953 C.2     1  UNL1        0.2493
     23 O          63.2191   85.8196   14.2769 O.2     1  UNL1       -0.2698
     24 N          63.0380   85.4986   11.7050 N.am    1  UNL1       -0.2786
     25 H          63.0064   85.8808   10.7983 H       1  UNL1        0.1552
     26 C          62.9535   84.0133   11.8964 C.ar    1  UNL1        0.0784
     27 C          62.4147   83.4517   13.1786 C.ar    1  UNL1        0.0170
     28 C          62.3302   81.9664   13.3699 C.ar    1  UNL1        0.0025
     29 C          62.7846   81.0426   12.2790 C.ar    1  UNL1        0.0163
     30 C          63.3235   81.6042   10.9967 C.ar    1  UNL1        0.0320
     31 C          63.4080   83.0895   10.8054 C.ar    1  UNL1        0.1535
     32 F          63.9469   83.6511    9.5231 F       1  UNL1       -0.2029
     33 C          62.7001   79.5573   12.4703 C.2     1  UNL1        0.0729
     34 O          62.6552   78.6488   11.2775 O.co2   1  UNL1       -0.5446
     35 O          62.6605   78.9804   13.8544 O.co2   1  UNL1       -0.5446
@<TRIPOS>UNITY_ATOM_ATTR
34 1
charge -1
@<TRIPOS>BOND
     1     1     2    1
     2     2     3   ar
     3     3    12    1
     4    12    13   ar
     5    13    14   ar
     6    14    15   ar
     7    15    16   ar
     8    16    17   ar
     9     3     4   ar
    10     4     5   ar
    11     5     6   ar
    12     6     7   ar
    13     7     8   ar
    14     8    18    1
    15    18    19    1
    16    18    20    1
    17    18    21    1
    18     8     9   ar
    19     9    10   ar
    20    10    11   ar
    21    11    22    1
    22    22    23    2
    23    22    24   am
    24    24    26    1
    25    26    27   ar
    26    27    28   ar
    27    28    29   ar
    28    29    33    1
    29    33    34   ar
    30    33    35   ar
    31    29    30   ar
    32    30    31   ar
    33    31    32    1
    34    11     2   ar
    35    31    26   ar
    36    17    12   ar
    37    10     5   ar
    38    24    25    1
@<TRIPOS>MOLECULE
*****
 35 38 0 0 0
SMALL
GASTEIGER

@<TRIPOS>ATOM
      1 C          61.6528   84.0590   10.5954 C.3     1  UNL1        0.0328
      2 C          62.3603   84.7880   11.6991 C.ar    1  UNL1        0.0002
      3 C          62.8534   84.0355   12.8994 C.ar    1  UNL1        0.0774
      4 N          63.5608   84.7644   14.0030 N.ar    1  UNL1       -0.2457
      5 C          63.7753   86.2459   13.9064 C.ar    1  UNL1        0.0814
      6 C          64.4828   86.9749   15.0101 C.ar    1  UNL1        0.0188
      7 C          64.6973   88.4563   14.9134 C.ar    1  UNL1       -0.0027
      8 C          64.2043   89.2087   13.7131 C.ar    1  UNL1       -0.0227
      9 C          63.4968   88.4798   12.6095 C.ar    1  UNL1       -0.0027
     10 C          63.2823   86.9984   12.7061 C.ar    1  UNL1        0.0215
     11 C          62.5748   86.2694   11.6025 C.ar    1  UNL1        0.0526
     12 C          62.6389   82.5540   12.9960 C.ar    1  UNL1        0.0173
     13 C          63.1975   81.6450   11.9417 C.ar    1  UNL1        0.0015
     14 C          62.9829   80.1636   12.0384 C.ar    1  UNL1        0.0000
     15 C          62.2098   79.5912   13.1893 C.ar    1  UNL1        0.0000
     16 C          61.6512   80.5002   14.2436 C.ar    1  UNL1        0.0000
     17 C          61.8657   81.9816   14.1470 C.ar    1  UNL1        0.0015
     18 C          64.4188   90.6902   13.6165 C.3     1  UNL1        0.0189
     19 C          65.3493   90.6322   14.7915 C.3     1  UNL1        0.0044
     20 C          63.4882   90.7483   12.4415 C.3     1  UNL1        0.0044
     21 C          64.6332   92.1716   13.5199 C.3     1  UNL1        0.0044
     22 C          62.0818   87.0219   10.4022 C.2     1  UNL1        0.2493
     23 O          63.0143   87.3118    9.2636 O.2     1  UNL1       -0.2698
     24 N          60.6562   87.4844   10.3404 N.am    1  UNL1       -0.2786
     25 H          60.0441   87.2942   11.0877 H       1  UNL1        0.1552
     26 C          60.1632   88.2369    9.1401 C.ar    1  UNL1        0.0784
     27 C          60.3540   89.7223    9.0557 C.ar    1  UNL1        0.0170
     28 C          59.8610   90.4748    7.8554 C.ar    1  UNL1        0.0025
     29 C          59.1771   89.7419    6.7395 C.ar    1  UNL1        0.0163
     30 C          58.9862   88.2564    6.8240 C.ar    1  UNL1        0.0320
     31 C          59.4793   87.5039    8.0243 C.ar    1  UNL1        0.1535
     32 F          59.2884   86.0186    8.1087 F       1  UNL1       -0.2029
     33 C          58.6841   90.4943    5.5393 C.2     1  UNL1        0.0729
     34 O          57.2111   90.6153    5.2829 O.co2   1  UNL1       -0.5446
     35 O          59.6640   91.1258    4.5953 O.co2   1  UNL1       -0.5446
@<TRIPOS>UNITY_ATOM_ATTR
34 1
charge -1
@<TRIPOS>BOND
     1     1     2    1
     2     2     3   ar
     3     3    12    1
     4    12    13   ar
     5    13    14   ar
     6    14    15   ar
     7    15    16   ar
     8    16    17   ar
     9     3     4   ar
    10     4     5   ar
    11     5     6   ar
    12     6     7   ar
    13     7     8   ar
    14     8    18    1
    15    18    19    1
    16    18    20    1
    17    18    21    1
    18     8     9   ar
    19     9    10   ar
    20    10    11   ar
    21    11    22    1
    22    22    23    2
    23    22    24   am
    24    24    26    1
    25    26    27   ar
    26    27    28   ar
    27    28    29   ar
    28    29    33    1
    29    33    34   ar
    30    33    35   ar
    31    29    30   ar
    32    30    31   ar
    33    31    32    1
    34    11     2   ar
    35    31    26   ar
    36    17    12   ar
    37    10     5   ar
    38    24    25    1
