@<TRIPOS>MOLECULE
*****
 37 40 0 0 0
SMALL
GASTEIGER

@<TRIPOS>ATOM
      1 C          62.1830   86.5880   10.7357 C.3     1  UNL1        0.1812
      2 O          62.9494   86.4800   12.0205 O.3     1  UNL1       -0.3784
      3 H          63.4751   85.6649   12.0160 H       1  UNL1        0.2106
      4 C          61.4167   86.6959    9.4508 C.3     1  UNL1        0.4197
      5 F          60.6503   86.8038    8.1658 F       1  UNL1       -0.1676
      6 F          60.1775   87.0477   10.2194 F       1  UNL1       -0.1676
      7 F          62.6558   86.3441    8.6822 F       1  UNL1       -0.1676
      8 C          62.7743   85.2890   10.2738 C.3     1  UNL1        0.0399
      9 C          64.1215   83.6763   10.5638 C.3     1  UNL1        0.0045
     10 C          62.8442   84.1210   11.2124 C.3     1  UNL1        0.0227
     11 C          61.6956   84.6465   11.6888 C.3     1  UNL1        0.0045
     12 C          62.9141   82.9530   12.1510 C.ar    1  UNL1       -0.0056
     13 C          62.5328   81.5832   11.6732 C.ar    1  UNL1       -0.0030
     14 C          62.6027   80.4152   12.6118 C.ar    1  UNL1       -0.0002
     15 C          63.0538   80.6171   14.0281 C.ar    1  UNL1        0.0013
     16 C          63.4351   81.9869   14.5057 C.ar    1  UNL1        0.0180
     17 C          63.3652   83.1549   13.5672 C.ar    1  UNL1        0.1017
     18 S          63.7465   84.5248   14.0449 S.O2    1  UNL1        0.0101
     19 C          64.1277   85.8946   14.5226 C.3     1  UNL1        0.1816
     20 O          62.3648   84.7171   14.5962 O.2     1  UNL1       -0.1686
     21 O          65.0225   84.5032   13.6048 O.2     1  UNL1       -0.1686
     22 C          61.5917   87.8868   11.1974 C.3     1  UNL1        0.0811
     23 C          62.4738   89.0835   11.3971 C.2     1  UNL1        0.0614
     24 C          62.9173   90.0399   10.3300 C.2     1  UNL1        0.0163
     25 C          63.7849   91.0814   10.9724 C.2     1  UNL1        0.0264
     26 C          64.5024   92.2741   10.4133 C.2     1  UNL1        0.0903
     27 C          65.3128   93.1540   11.3183 C.2     1  UNL1        0.3192
     28 N          65.4056   92.8413   12.7824 N.2     1  UNL1       -0.0585
     29 C          64.6881   91.6485   13.3415 C.3     1  UNL1        0.3085
     30 C          63.8778   90.7686   12.4365 C.2     1  UNL1        0.1121
     31 N          63.0675   89.5338   12.6990 N.2     1  UNL1       -0.2495
     32 N          66.0303   94.3468   10.7593 N.pl3   1  UNL1       -0.1860
     33 C          66.8096   94.2232    9.4834 C.3     1  UNL1        0.2346
     34 C          67.5271   95.4159    8.9244 C.3     1  UNL1        0.1929
     35 O          67.4654   96.7322    9.6411 O.3     1  UNL1       -0.3449
     36 C          66.6862   96.8557   10.9168 C.3     1  UNL1        0.1929
     37 C          65.9687   95.6630   11.4759 C.3     1  UNL1        0.2346
@<TRIPOS>BOND
     1     9    10    1
     2    10    11    1
     3    10     8    1
     4     8     1    1
     5     1     2    1
     6     1    22    1
     7    22    23    1
     8    23    24    2
     9    24    25    1
    10    25    26    2
    11    26    27    1
    12    27    32    1
    13    32    33    1
    14    33    34    1
    15    34    35    1
    16    35    36    1
    17    36    37    1
    18    27    28    2
    19    28    29    1
    20    29    30    1
    21    30    31    2
    22     1     4    1
    23     4     5    1
    24     4     6    1
    25     4     7    1
    26    10    12    1
    27    12    13   ar
    28    13    14   ar
    29    14    15   ar
    30    15    16   ar
    31    16    17   ar
    32    17    18    1
    33    18    19    1
    34    18    20    2
    35    18    21    2
    36    31    23    1
    37    17    12   ar
    38    30    25    1
    39    37    32    1
    40     2     3    1
@<TRIPOS>MOLECULE
*****
 37 40 0 0 0
SMALL
GASTEIGER

@<TRIPOS>ATOM
      1 C          63.7198   86.7366   15.5830 C.3     1  UNL1        0.1812
      2 O          64.2577   86.9847   14.2050 O.3     1  UNL1       -0.3784
      3 H          64.3918   86.1371   13.7528 H       1  UNL1        0.2106
      4 C          63.1819   86.4885   16.9610 C.3     1  UNL1        0.4197
      5 F          62.6439   86.2404   18.3392 F       1  UNL1       -0.1676
      6 F          63.9304   85.1899   17.0195 F       1  UNL1       -0.1676
      7 F          62.4333   87.7870   16.9027 F       1  UNL1       -0.1676
      8 C          63.7495   85.2586   15.3286 C.3     1  UNL1        0.0399
      9 C          62.1110   84.9840   14.0096 C.3     1  UNL1        0.0045
     10 C          63.5881   84.7346   13.9324 C.3     1  UNL1        0.0227
     11 C          64.9252   84.5692   14.0166 C.3     1  UNL1        0.0045
     12 C          63.4266   84.2105   12.5362 C.ar    1  UNL1       -0.0056
     13 C          63.3666   85.1638   11.3796 C.ar    1  UNL1       -0.0030
     14 C          63.2052   84.6397    9.9834 C.ar    1  UNL1       -0.0002
     15 C          63.1037   83.1624    9.7438 C.ar    1  UNL1        0.0013
     16 C          63.1637   82.2092   10.9004 C.ar    1  UNL1        0.0180
     17 C          63.3251   82.7333   12.2966 C.ar    1  UNL1        0.1017
     18 S          63.3851   81.7800   13.4533 S.O2    1  UNL1        0.0101
     19 C          63.4451   80.8268   14.6098 C.3     1  UNL1        0.1816
     20 O          64.8332   81.5182   13.1625 O.2     1  UNL1       -0.1686
     21 O          62.0981   81.9093   13.8399 O.2     1  UNL1       -0.1686
     22 C          63.6900   88.2145   15.8375 C.3     1  UNL1        0.0811
     23 C          63.9173   89.1748   14.7078 C.2     1  UNL1        0.0614
     24 C          65.0285   90.1780   14.6134 C.2     1  UNL1        0.0163
     25 C          64.8714   90.9237   13.3214 C.2     1  UNL1        0.0264
     26 C          65.6724   92.0264   12.6952 C.2     1  UNL1        0.0903
     27 C          65.2651   92.5869   11.3647 C.2     1  UNL1        0.3192
     28 N          64.0568   92.0446   10.6606 N.2     1  UNL1       -0.0585
     29 C          63.2557   90.9419   11.2869 C.3     1  UNL1        0.3085
     30 C          63.6630   90.3814   12.6173 C.2     1  UNL1        0.1121
     31 N          63.0733   89.3005   13.4741 N.2     1  UNL1       -0.2495
     32 N          66.0661   93.6897   10.7384 N.pl3   1  UNL1       -0.1860
     33 C          65.7882   95.1182   11.1020 C.3     1  UNL1        0.2346
     34 C          66.5892   96.2210   10.4757 C.3     1  UNL1        0.1929
     35 O          67.6683   95.8952    9.4859 O.3     1  UNL1       -0.3449
     36 C          67.9462   94.4667    9.1224 C.3     1  UNL1        0.1929
     37 C          67.1451   93.3640    9.7487 C.3     1  UNL1        0.2346
@<TRIPOS>BOND
     1     9    10    1
     2    10    11    1
     3    10     8    1
     4     8     1    1
     5     1     2    1
     6     1    22    1
     7    22    23    1
     8    23    24    2
     9    24    25    1
    10    25    26    2
    11    26    27    1
    12    27    32    1
    13    32    33    1
    14    33    34    1
    15    34    35    1
    16    35    36    1
    17    36    37    1
    18    27    28    2
    19    28    29    1
    20    29    30    1
    21    30    31    2
    22     1     4    1
    23     4     5    1
    24     4     6    1
    25     4     7    1
    26    10    12    1
    27    12    13   ar
    28    13    14   ar
    29    14    15   ar
    30    15    16   ar
    31    16    17   ar
    32    17    18    1
    33    18    19    1
    34    18    20    2
    35    18    21    2
    36    31    23    1
    37    17    12   ar
    38    30    25    1
    39    37    32    1
    40     2     3    1
@<TRIPOS>MOLECULE
*****
 37 40 0 0 0
SMALL
GASTEIGER

@<TRIPOS>ATOM
      1 C          63.7651   86.8764   15.6765 C.3     1  UNL1        0.1812
      2 O          64.2350   87.0305   14.2604 O.3     1  UNL1       -0.3784
      3 H          64.7335   86.2410   13.9975 H       1  UNL1        0.2106
      4 C          63.2951   86.7224   17.0926 C.3     1  UNL1        0.4197
      5 F          62.8251   86.5684   18.5087 F       1  UNL1       -0.1676
      6 F          64.3493   85.6818   17.3293 F       1  UNL1       -0.1676
      7 F          62.2410   87.7629   16.8559 F       1  UNL1       -0.1676
      8 C          64.4165   85.5270   15.7459 C.3     1  UNL1        0.0399
      9 C          62.5858   84.4610   15.6373 C.3     1  UNL1        0.0045
     10 C          63.8946   84.3982   14.9073 C.3     1  UNL1        0.0227
     11 C          65.1211   84.4660   14.3472 C.3     1  UNL1        0.0045
     12 C          63.3727   83.2694   14.0686 C.ar    1  UNL1       -0.0056
     13 C          63.3880   81.8681   14.6038 C.ar    1  UNL1       -0.0030
     14 C          62.8661   80.7393   13.7651 C.ar    1  UNL1       -0.0002
     15 C          62.3289   81.0117   12.3913 C.ar    1  UNL1        0.0013
     16 C          62.3136   82.4129   11.8563 C.ar    1  UNL1        0.0180
     17 C          62.8355   83.5417   12.6949 C.ar    1  UNL1        0.1017
     18 S          62.8202   84.9430   12.1598 S.O2    1  UNL1        0.0101
     19 C          62.8049   86.3442   11.6247 C.3     1  UNL1        0.1816
     20 O          63.8452   84.5621   11.1330 O.2     1  UNL1       -0.1686
     21 O          61.9028   85.4369   13.0183 O.2     1  UNL1       -0.1686
     22 C          63.1136   88.2258   15.6071 C.3     1  UNL1        0.0811
     23 C          63.4565   89.1676   14.4912 C.2     1  UNL1        0.0614
     24 C          64.5844   90.1566   14.4873 C.2     1  UNL1        0.0163
     25 C          64.5568   90.8861   13.1769 C.2     1  UNL1        0.0264
     26 C          65.4262   91.9708   12.6135 C.2     1  UNL1        0.0903
     27 C          65.1507   92.5174   11.2440 C.2     1  UNL1        0.3192
     28 N          64.0058   91.9793   10.4380 N.2     1  UNL1       -0.0585
     29 C          63.1364   90.8946   11.0015 C.3     1  UNL1        0.3085
     30 C          63.4118   90.3480   12.3709 C.2     1  UNL1        0.1121
     31 N          62.7318   89.2859   13.1832 N.2     1  UNL1       -0.2495
     32 N          66.0202   93.6021   10.6806 N.pl3   1  UNL1       -0.1860
     33 C          67.1439   93.2549    9.7496 C.3     1  UNL1        0.2346
     34 C          68.0134   94.3396    9.1861 C.3     1  UNL1        0.1929
     35 O          67.7591   95.7716    9.5537 O.3     1  UNL1       -0.3449
     36 C          66.6353   96.1187   10.4846 C.3     1  UNL1        0.1929
     37 C          65.7659   95.0340   11.0481 C.3     1  UNL1        0.2346
@<TRIPOS>BOND
     1     9    10    1
     2    10    11    1
     3    10     8    1
     4     8     1    1
     5     1     2    1
     6     1    22    1
     7    22    23    1
     8    23    24    2
     9    24    25    1
    10    25    26    2
    11    26    27    1
    12    27    32    1
    13    32    33    1
    14    33    34    1
    15    34    35    1
    16    35    36    1
    17    36    37    1
    18    27    28    2
    19    28    29    1
    20    29    30    1
    21    30    31    2
    22     1     4    1
    23     4     5    1
    24     4     6    1
    25     4     7    1
    26    10    12    1
    27    12    13   ar
    28    13    14   ar
    29    14    15   ar
    30    15    16   ar
    31    16    17   ar
    32    17    18    1
    33    18    19    1
    34    18    20    2
    35    18    21    2
    36    31    23    1
    37    17    12   ar
    38    30    25    1
    39    37    32    1
    40     2     3    1
@<TRIPOS>MOLECULE
*****
 37 40 0 0 0
SMALL
GASTEIGER

@<TRIPOS>ATOM
      1 C          65.0154   91.7746   14.1937 C.3     1  UNL1        0.1812
      2 O          63.6476   91.6049   13.6018 O.3     1  UNL1       -0.3784
      3 H          63.4584   92.3474   13.0070 H       1  UNL1        0.2106
      4 C          66.3832   91.9443   14.7856 C.3     1  UNL1        0.4197
      5 F          67.7510   92.1140   15.3775 F       1  UNL1       -0.1676
      6 F          65.8673   93.0473   15.6617 F       1  UNL1       -0.1676
      7 F          66.8991   90.8415   13.9096 F       1  UNL1       -0.1676
      8 C          65.1886   93.0524   13.4273 C.3     1  UNL1        0.0399
      9 C          65.0918   92.0901   11.5393 C.3     1  UNL1        0.0045
     10 C          66.0251   93.0727   12.1823 C.3     1  UNL1        0.0227
     11 C          66.7669   93.9482   12.8933 C.3     1  UNL1        0.0045
     12 C          66.8615   93.0930   10.9374 C.ar    1  UNL1       -0.0056
     13 C          67.7225   91.9139   10.5930 C.ar    1  UNL1       -0.0030
     14 C          68.5590   91.9342    9.3480 C.ar    1  UNL1       -0.0002
     15 C          68.5345   93.1336    8.4475 C.ar    1  UNL1        0.0013
     16 C          67.6736   94.3126    8.7919 C.ar    1  UNL1        0.0180
     17 C          66.8371   94.2923   10.0368 C.ar    1  UNL1        0.1017
     18 S          65.9761   95.4714   10.3812 S.O2    1  UNL1        0.0101
     19 C          65.1151   96.6504   10.7255 C.3     1  UNL1        0.1816
     20 O          67.1973   96.2482   10.7750 O.2     1  UNL1       -0.1686
     21 O          64.7907   94.9068   10.0672 O.2     1  UNL1       -0.1686
     22 C          64.8423   90.4969   14.9602 C.3     1  UNL1        0.0811
     23 C          64.3437   89.2659   14.2631 C.2     1  UNL1        0.0614
     24 C          64.5422   87.8515   14.7216 C.2     1  UNL1        0.0163
     25 C          63.8804   86.9445   13.7270 C.2     1  UNL1        0.0264
     26 C          63.7524   85.4515   13.6599 C.2     1  UNL1        0.0903
     27 C          63.0169   84.8123   12.5195 C.2     1  UNL1        0.3192
     28 N          62.4093   85.6660   11.4463 N.2     1  UNL1       -0.0585
     29 C          62.5373   87.1591   11.5133 C.3     1  UNL1        0.3085
     30 C          63.2728   87.7983   12.6537 C.2     1  UNL1        0.1121
     31 N          63.5592   89.2330   12.9850 N.2     1  UNL1       -0.2495
     32 N          62.8889   83.3192   12.4525 N.pl3   1  UNL1       -0.1860
     33 C          62.3589   82.5582   13.6315 C.3     1  UNL1        0.2346
     34 C          62.2309   81.0652   13.5644 C.3     1  UNL1        0.1929
     35 O          62.6330   80.3332   12.3183 O.3     1  UNL1       -0.3449
     36 C          63.1630   81.0942   11.1394 C.3     1  UNL1        0.1929
     37 C          63.2909   82.5872   11.2065 C.3     1  UNL1        0.2346
@<TRIPOS>BOND
     1     9    10    1
     2    10    11    1
     3    10     8    1
     4     8     1    1
     5     1     2    1
     6     1    22    1
     7    22    23    1
     8    23    24    2
     9    24    25    1
    10    25    26    2
    11    26    27    1
    12    27    32    1
    13    32    33    1
    14    33    34    1
    15    34    35    1
    16    35    36    1
    17    36    37    1
    18    27    28    2
    19    28    29    1
    20    29    30    1
    21    30    31    2
    22     1     4    1
    23     4     5    1
    24     4     6    1
    25     4     7    1
    26    10    12    1
    27    12    13   ar
    28    13    14   ar
    29    14    15   ar
    30    15    16   ar
    31    16    17   ar
    32    17    18    1
    33    18    19    1
    34    18    20    2
    35    18    21    2
    36    31    23    1
    37    17    12   ar
    38    30    25    1
    39    37    32    1
    40     2     3    1
@<TRIPOS>MOLECULE
*****
 37 40 0 0 0
SMALL
GASTEIGER

@<TRIPOS>ATOM
      1 C          62.1903   86.5403   10.6826 C.3     1  UNL1        0.1812
      2 O          62.8751   86.3195   11.9988 O.3     1  UNL1       -0.3784
      3 H          63.3436   85.4704   11.9810 H       1  UNL1        0.2106
      4 C          61.5056   86.7610    9.3664 C.3     1  UNL1        0.4197
      5 F          60.8207   86.9818    8.0502 F       1  UNL1       -0.1676
      6 F          62.7609   86.3655    8.6469 F       1  UNL1       -0.1676
      7 F          60.2502   87.1566   10.0859 F       1  UNL1       -0.1676
      8 C          62.7167   85.2255   10.1881 C.3     1  UNL1        0.0399
      9 C          64.1182   83.6648   10.5042 C.3     1  UNL1        0.0045
     10 C          62.8084   84.0553   11.1221 C.3     1  UNL1        0.0227
     11 C          61.6282   84.5326   11.5715 C.3     1  UNL1        0.0045
     12 C          62.9000   82.8851   12.0560 C.ar    1  UNL1       -0.0056
     13 C          62.5086   81.5162   11.5837 C.ar    1  UNL1       -0.0030
     14 C          62.6002   80.3460   12.5176 C.ar    1  UNL1       -0.0002
     15 C          63.0832   80.5447   13.9238 C.ar    1  UNL1        0.0013
     16 C          63.4745   81.9135   14.3960 C.ar    1  UNL1        0.0180
     17 C          63.3829   83.0837   13.4621 C.ar    1  UNL1        0.1017
     18 S          63.7743   84.4526   13.9344 S.O2    1  UNL1        0.0101
     19 C          64.1657   85.8215   14.4066 C.3     1  UNL1        0.1816
     20 O          62.3922   84.6600   14.4790 O.2     1  UNL1       -0.1686
     21 O          65.0519   84.4176   13.4997 O.2     1  UNL1       -0.1686
     22 C          61.6639   87.8550   11.1770 C.3     1  UNL1        0.0811
     23 C          62.6171   88.9372   11.5895 C.2     1  UNL1        0.0614
     24 C          63.5031   88.9176   12.7998 C.2     1  UNL1        0.0163
     25 C          64.2853   90.1973   12.8224 C.2     1  UNL1        0.0264
     26 C          65.3121   90.7293   13.7778 C.2     1  UNL1        0.0903
     27 C          65.9364   92.0718   13.5369 C.2     1  UNL1        0.3192
     28 N          65.5339   92.8823   12.3406 N.2     1  UNL1       -0.0585
     29 C          64.5071   92.3503   11.3852 C.3     1  UNL1        0.3085
     30 C          63.8828   91.0078   11.6261 C.2     1  UNL1        0.1121
     31 N          62.8518   90.2290   10.8641 N.2     1  UNL1       -0.2495
     32 N          66.9631   92.6038   14.4922 N.pl3   1  UNL1       -0.1860
     33 C          67.2410   94.0767   14.5510 C.3     1  UNL1        0.2346
     34 C          68.2678   94.6087   15.5063 C.3     1  UNL1        0.1929
     35 O          69.0167   93.6677   16.4030 O.3     1  UNL1       -0.3449
     36 C          68.7388   92.1949   16.3442 C.3     1  UNL1        0.1929
     37 C          67.7120   91.6629   15.3889 C.3     1  UNL1        0.2346
@<TRIPOS>BOND
     1     9    10    1
     2    10    11    1
     3    10     8    1
     4     8     1    1
     5     1     2    1
     6     1    22    1
     7    22    23    1
     8    23    24    2
     9    24    25    1
    10    25    26    2
    11    26    27    1
    12    27    32    1
    13    32    33    1
    14    33    34    1
    15    34    35    1
    16    35    36    1
    17    36    37    1
    18    27    28    2
    19    28    29    1
    20    29    30    1
    21    30    31    2
    22     1     4    1
    23     4     5    1
    24     4     6    1
    25     4     7    1
    26    10    12    1
    27    12    13   ar
    28    13    14   ar
    29    14    15   ar
    30    15    16   ar
    31    16    17   ar
    32    17    18    1
    33    18    19    1
    34    18    20    2
    35    18    21    2
    36    31    23    1
    37    17    12   ar
    38    30    25    1
    39    37    32    1
    40     2     3    1
@<TRIPOS>MOLECULE
*****
 37 40 0 0 0
SMALL
GASTEIGER

@<TRIPOS>ATOM
      1 C          65.5724   91.8162   13.6288 C.3     1  UNL1        0.1812
      2 O          64.6297   91.8215   12.4621 O.3     1  UNL1       -0.3784
      3 H          65.1113   92.0727   11.6585 H       1  UNL1        0.2106
      4 C          66.5151   91.8109   14.7955 C.3     1  UNL1        0.4197
      5 F          67.4578   91.8056   15.9623 F       1  UNL1       -0.1676
      6 F          67.4313   90.8854   14.0510 F       1  UNL1       -0.1676
      7 F          65.5990   92.7362   15.5400 F       1  UNL1       -0.1676
      8 C          66.6957   92.2263   12.7231 C.3     1  UNL1        0.0399
      9 C          66.0559   92.4432   10.7123 C.3     1  UNL1        0.0045
     10 C          66.5186   93.3836   11.7854 C.3     1  UNL1        0.0227
     11 C          66.9513   94.0966   12.8469 C.3     1  UNL1        0.0045
     12 C          66.3415   94.5409   10.8477 C.ar    1  UNL1       -0.0056
     13 C          65.3379   95.6114   11.1587 C.ar    1  UNL1       -0.0030
     14 C          65.1608   96.7687   10.2210 C.ar    1  UNL1       -0.0002
     15 C          65.9874   96.8554    8.9722 C.ar    1  UNL1        0.0013
     16 C          66.9909   95.7849    8.6613 C.ar    1  UNL1        0.0180
     17 C          67.1680   94.6276    9.5990 C.ar    1  UNL1        0.1017
     18 S          68.1717   93.5570    9.2879 S.O2    1  UNL1        0.0101
     19 C          69.1753   92.4865    8.9770 C.3     1  UNL1        0.1816
     20 O          67.5582   93.3760    7.9312 O.2     1  UNL1       -0.1686
     21 O          68.8298   93.6013   10.4658 O.2     1  UNL1       -0.1686
     22 C          64.4492   91.4061   14.5345 C.3     1  UNL1        0.0811
     23 C          64.1568   89.9516   14.7552 C.2     1  UNL1        0.0614
     24 C          64.2787   88.8623   13.7311 C.2     1  UNL1        0.0163
     25 C          63.8883   87.5684   14.3818 C.2     1  UNL1        0.0264
     26 C          63.8166   86.1640   13.8598 C.2     1  UNL1        0.0903
     27 C          63.3817   85.0490   14.7642 C.2     1  UNL1        0.3192
     28 N          63.0185   85.3385   16.1904 N.2     1  UNL1       -0.0585
     29 C          63.0902   86.7429   16.7124 C.3     1  UNL1        0.3085
     30 C          63.5251   87.8579   15.8081 C.2     1  UNL1        0.1121
     31 N          63.6910   89.3308   16.0389 N.2     1  UNL1       -0.2495
     32 N          63.3100   83.6446   14.2422 N.pl3   1  UNL1       -0.1860
     33 C          62.2691   82.7012   14.7682 C.3     1  UNL1        0.2346
     34 C          62.1975   81.2968   14.2462 C.3     1  UNL1        0.1929
     35 O          63.1666   80.8358   13.1982 O.3     1  UNL1       -0.3449
     36 C          64.2074   81.7792   12.6723 C.3     1  UNL1        0.1929
     37 C          64.2791   83.1836   13.1942 C.3     1  UNL1        0.2346
@<TRIPOS>BOND
     1     9    10    1
     2    10    11    1
     3    10     8    1
     4     8     1    1
     5     1     2    1
     6     1    22    1
     7    22    23    1
     8    23    24    2
     9    24    25    1
    10    25    26    2
    11    26    27    1
    12    27    32    1
    13    32    33    1
    14    33    34    1
    15    34    35    1
    16    35    36    1
    17    36    37    1
    18    27    28    2
    19    28    29    1
    20    29    30    1
    21    30    31    2
    22     1     4    1
    23     4     5    1
    24     4     6    1
    25     4     7    1
    26    10    12    1
    27    12    13   ar
    28    13    14   ar
    29    14    15   ar
    30    15    16   ar
    31    16    17   ar
    32    17    18    1
    33    18    19    1
    34    18    20    2
    35    18    21    2
    36    31    23    1
    37    17    12   ar
    38    30    25    1
    39    37    32    1
    40     2     3    1
