@<TRIPOS>MOLECULE
*****
 33 35 0 0 0
SMALL
GASTEIGER

@<TRIPOS>ATOM
      1 C          63.6948   86.2838   15.2681 C.ar    1  UNL1        0.0528
      2 C          64.3339   87.4497   14.5737 C.ar    1  UNL1        0.0167
      3 C          64.2133   88.8271   15.1552 C.ar    1  UNL1        0.0506
      4 C          63.4536   89.0386   16.4311 C.ar    1  UNL1        0.0170
      5 C          62.8145   87.8728   17.1256 C.ar    1  UNL1        0.0307
      6 C          62.9351   86.4954   16.5441 C.ar    1  UNL1        0.1402
      7 F          62.2959   85.3294   17.2385 F       1  UNL1       -0.2044
      8 C          64.0314   84.5961   16.1382 C.3     1  UNL1        0.0607
      9 C          63.8154   84.9063   14.6866 C.3     1  UNL1        0.2223
     10 C          63.5576   85.6949   13.4370 C.3     1  UNL1        0.1959
     11 O          63.4953   84.9984   12.1100 O.3     1  UNL1       -0.3357
     12 C          63.6909   83.5131   12.0327 C.3     1  UNL1        0.2740
     13 C          63.8116   82.1357   11.4512 C.3     1  UNL1        0.0512
     14 C          63.9488   82.7246   13.2823 C.2     1  UNL1        0.3217
     15 N          64.1444   81.2394   13.2050 N.pl3   1  UNL1       -0.2480
     16 N          64.0110   83.4211   14.6093 N.2     1  UNL1       -0.0692
     17 H          64.1035   80.7822   12.3340 H       1  UNL1        0.2882
     18 H          64.3136   80.7218   14.0251 H       1  UNL1        0.2882
     19 C          63.4750   83.8234   10.5810 C.3     1  UNL1        0.4305
     20 F          63.2590   84.1336    9.1294 F       1  UNL1       -0.1670
     21 F          62.1790   84.4992   10.9183 F       1  UNL1       -0.1670
     22 F          64.7709   83.1476   10.2439 F       1  UNL1       -0.1670
     23 N          64.8525   89.9930   14.4608 N.am    1  UNL1       -0.2779
     24 C          64.1584   90.6496   13.3044 C.2     1  UNL1        0.2855
     25 O          62.8252   90.1403   12.8425 O.2     1  UNL1       -0.2664
     26 H          65.7274   90.3272   14.7639 H       1  UNL1        0.1553
     27 C          64.7975   91.8155   12.6100 C.ar    1  UNL1        0.2173
     28 N          64.6417   91.9828   11.1275 N.ar    1  UNL1       -0.2207
     29 C          65.2809   93.1488   10.4331 C.ar    1  UNL1        0.1089
     30 C          66.0756   94.1473   11.2211 C.ar    1  UNL1        0.0729
     31 BR         66.7147   95.3132   10.5267 Br      1  UNL1       -0.0458
     32 C          66.2314   93.9801   12.7036 C.ar    1  UNL1        0.1089
     33 N          65.5923   92.8142   13.3980 N.ar    1  UNL1       -0.2207
@<TRIPOS>BOND
     1     9     8    1
     2     9     1    1
     3     1     2   ar
     4     2     3   ar
     5     3    23    1
     6    23    24   am
     7    24    25    2
     8    24    27    1
     9    27    28   ar
    10    28    29   ar
    11    29    30   ar
    12    30    31    1
    13    30    32   ar
    14    32    33   ar
    15     3     4   ar
    16     4     5   ar
    17     5     6   ar
    18     6     7    1
    19     9    10    1
    20    10    11    1
    21    11    12    1
    22    12    13    1
    23    12    19    1
    24    19    20    1
    25    19    21    1
    26    19    22    1
    27    12    14    1
    28    14    15    1
    29    14    16    2
    30    16     9    1
    31     6     1   ar
    32    33    27   ar
    33    23    26    1
    34    15    17    1
    35    15    18    1
@<TRIPOS>MOLECULE
*****
 33 35 0 0 0
SMALL
GASTEIGER

@<TRIPOS>ATOM
      1 C          63.9874   88.4772   14.3679 C.ar    1  UNL1        0.0528
      2 C          64.3387   89.5326   13.3616 C.ar    1  UNL1        0.0167
      3 C          64.3907   90.9739   13.7734 C.ar    1  UNL1        0.0506
      4 C          64.0915   91.3600   15.1917 C.ar    1  UNL1        0.0170
      5 C          63.7402   90.3047   16.1981 C.ar    1  UNL1        0.0307
      6 C          63.6882   88.8633   15.7862 C.ar    1  UNL1        0.1402
      7 F          63.3369   87.8079   16.7926 F       1  UNL1       -0.2044
      8 C          64.7520   86.9194   15.2089 C.3     1  UNL1        0.0607
      9 C          63.9353   87.0358   13.9561 C.3     1  UNL1        0.2223
     10 C          63.1368   87.6527   12.8464 C.3     1  UNL1        0.1959
     11 O          62.5697   86.7879   11.7599 O.3     1  UNL1       -0.3357
     12 C          62.8013   85.3060   11.7832 C.3     1  UNL1        0.2740
     13 C          62.7493   83.8646   11.3714 C.3     1  UNL1        0.0512
     14 C          63.5999   84.6890   12.8929 C.2     1  UNL1        0.3217
     15 N          63.8315   83.2072   12.9162 N.pl3   1  UNL1       -0.2480
     16 N          64.1669   85.5539   13.9794 N.2     1  UNL1       -0.0692
     17 H          63.4593   82.6395   12.2031 H       1  UNL1        0.2882
     18 H          64.3556   82.8022   13.6446 H       1  UNL1        0.2882
     19 C          61.9846   85.4223   10.5303 C.3     1  UNL1        0.4305
     20 F          61.1679   85.5387    9.2775 F       1  UNL1       -0.1670
     21 F          63.0832   84.7601    9.7527 F       1  UNL1       -0.1670
     22 F          60.8862   86.0846   11.3080 F       1  UNL1       -0.1670
     23 N          64.7420   92.0293   12.7670 N.am    1  UNL1       -0.2779
     24 C          66.1692   92.4591   12.5980 C.2     1  UNL1        0.2855
     25 O          67.2450   91.8334   13.4354 O.2     1  UNL1       -0.2664
     26 H          64.0359   92.4400   12.2175 H       1  UNL1        0.1553
     27 C          66.5205   93.5145   11.5917 C.ar    1  UNL1        0.2173
     28 N          66.0715   94.9302   11.8017 N.ar    1  UNL1       -0.2207
     29 C          66.4229   95.9856   10.7953 C.ar    1  UNL1        0.1089
     30 C          67.2231   95.6252    9.5789 C.ar    1  UNL1        0.0729
     31 BR         67.5744   96.6806    8.5726 Br      1  UNL1       -0.0458
     32 C          67.6721   94.2095    9.3689 C.ar    1  UNL1        0.1089
     33 N          67.3208   93.1541   10.3752 N.ar    1  UNL1       -0.2207
@<TRIPOS>BOND
     1     9     8    1
     2     9     1    1
     3     1     2   ar
     4     2     3   ar
     5     3    23    1
     6    23    24   am
     7    24    25    2
     8    24    27    1
     9    27    28   ar
    10    28    29   ar
    11    29    30   ar
    12    30    31    1
    13    30    32   ar
    14    32    33   ar
    15     3     4   ar
    16     4     5   ar
    17     5     6   ar
    18     6     7    1
    19     9    10    1
    20    10    11    1
    21    11    12    1
    22    12    13    1
    23    12    19    1
    24    19    20    1
    25    19    21    1
    26    19    22    1
    27    12    14    1
    28    14    15    1
    29    14    16    2
    30    16     9    1
    31     6     1   ar
    32    33    27   ar
    33    23    26    1
    34    15    17    1
    35    15    18    1
@<TRIPOS>MOLECULE
*****
 33 35 0 0 0
SMALL
GASTEIGER

@<TRIPOS>ATOM
      1 C          63.9670   89.2315   14.7323 C.ar    1  UNL1        0.0528
      2 C          64.0036   87.8687   14.1069 C.ar    1  UNL1        0.0167
      3 C          63.6307   86.6619   14.9159 C.ar    1  UNL1        0.0506
      4 C          63.2211   86.8181   16.3504 C.ar    1  UNL1        0.0170
      5 C          63.1844   88.1809   16.9759 C.ar    1  UNL1        0.0307
      6 C          63.5573   89.3876   16.1668 C.ar    1  UNL1        0.1402
      7 F          63.5207   90.7506   16.7923 F       1  UNL1       -0.2044
      8 C          63.0221   90.0989   13.2923 C.3     1  UNL1        0.0607
      9 C          64.3399   90.4384   13.9232 C.3     1  UNL1        0.2223
     10 C          65.5282   90.3587   14.8351 C.3     1  UNL1        0.1959
     11 O          66.6318   91.3680   14.7189 O.3     1  UNL1       -0.3357
     12 C          66.5470   92.4569   13.6907 C.3     1  UNL1        0.2740
     13 C          66.9199   93.6637   12.8816 C.3     1  UNL1        0.0512
     14 C          65.3587   92.5365   12.7788 C.2     1  UNL1        0.3217
     15 N          65.2740   93.6255   11.7506 N.pl3   1  UNL1       -0.2480
     16 N          64.2552   91.5273   12.8950 N.2     1  UNL1       -0.0692
     17 H          65.9983   94.2879   11.6743 H       1  UNL1        0.2882
     18 H          64.4940   93.6777   11.1521 H       1  UNL1        0.2882
     19 C          67.8649   92.7964   14.3216 C.3     1  UNL1        0.4305
     20 F          69.1828   93.1359   14.9525 F       1  UNL1       -0.1670
     21 F          68.5220   91.6971   13.5406 F       1  UNL1       -0.1670
     22 F          67.2078   93.8956   15.1025 F       1  UNL1       -0.1670
     23 N          63.6673   85.2990   14.2905 N.am    1  UNL1       -0.2779
     24 C          62.9553   85.0493   12.9941 C.2     1  UNL1        0.2855
     25 O          62.2066   86.1626   12.3231 O.2     1  UNL1       -0.2664
     26 H          64.1587   84.5683   14.7309 H       1  UNL1        0.1553
     27 C          62.9919   83.6865   12.3686 C.ar    1  UNL1        0.2173
     28 N          62.4308   82.5073   13.1065 N.ar    1  UNL1       -0.2207
     29 C          62.4674   81.1444   12.4810 C.ar    1  UNL1        0.1089
     30 C          63.0652   80.9607   11.1176 C.ar    1  UNL1        0.0729
     31 BR         63.1019   79.5979   10.4922 Br      1  UNL1       -0.0458
     32 C          63.6264   82.1399   10.3797 C.ar    1  UNL1        0.1089
     33 N          63.5898   83.5028   11.0051 N.ar    1  UNL1       -0.2207
@<TRIPOS>BOND
     1     9     8    1
     2     9     1    1
     3     1     2   ar
     4     2     3   ar
     5     3    23    1
     6    23    24   am
     7    24    25    2
     8    24    27    1
     9    27    28   ar
    10    28    29   ar
    11    29    30   ar
    12    30    31    1
    13    30    32   ar
    14    32    33   ar
    15     3     4   ar
    16     4     5   ar
    17     5     6   ar
    18     6     7    1
    19     9    10    1
    20    10    11    1
    21    11    12    1
    22    12    13    1
    23    12    19    1
    24    19    20    1
    25    19    21    1
    26    19    22    1
    27    12    14    1
    28    14    15    1
    29    14    16    2
    30    16     9    1
    31     6     1   ar
    32    33    27   ar
    33    23    26    1
    34    15    17    1
    35    15    18    1
@<TRIPOS>MOLECULE
*****
 33 35 0 0 0
SMALL
GASTEIGER

@<TRIPOS>ATOM
      1 C          62.0795   87.4310   11.0460 C.ar    1  UNL1        0.0528
      2 C          63.1032   88.3571   11.6327 C.ar    1  UNL1        0.0167
      3 C          62.7878   89.8139   11.8010 C.ar    1  UNL1        0.0506
      4 C          61.4486   90.3445   11.3825 C.ar    1  UNL1        0.0170
      5 C          60.4249   89.4184   10.7958 C.ar    1  UNL1        0.0307
      6 C          60.7404   87.9617   10.6275 C.ar    1  UNL1        0.1402
      7 F          59.7166   87.0355   10.0408 F       1  UNL1       -0.2044
      8 C          62.3811   86.4054    9.4410 C.3     1  UNL1        0.0607
      9 C          62.3949   85.9742   10.8777 C.3     1  UNL1        0.2223
     10 C          62.2993   86.0490   12.3727 C.3     1  UNL1        0.1959
     11 O          62.5142   84.8167   13.2006 O.3     1  UNL1       -0.3357
     12 C          62.8248   83.5097   12.5333 C.3     1  UNL1        0.2740
     13 C          63.1402   82.0529   12.3649 C.3     1  UNL1        0.0512
     14 C          62.9205   83.4349   11.0382 C.2     1  UNL1        0.3217
     15 N          63.2311   82.1278   10.3710 N.pl3   1  UNL1       -0.2480
     16 N          62.7055   84.6671   10.2104 N.2     1  UNL1       -0.0692
     17 H          63.3721   81.3191   10.9143 H       1  UNL1        0.2882
     18 H          63.2938   82.0788    9.3897 H       1  UNL1        0.2882
     19 C          62.8387   83.0785   13.9699 C.3     1  UNL1        0.4305
     20 F          62.8525   82.6473   15.4066 F       1  UNL1       -0.1670
     21 F          61.7284   82.1095   13.6898 F       1  UNL1       -0.1670
     22 F          63.9489   84.0474   14.2500 F       1  UNL1       -0.1670
     23 N          63.8115   90.7401   12.3877 N.am    1  UNL1       -0.2779
     24 C          64.5054   90.3773   13.6672 C.2     1  UNL1        0.2855
     25 O          64.1754   89.0883   14.3599 O.2     1  UNL1       -0.2664
     26 H          64.0280   91.5861   11.9331 H       1  UNL1        0.1553
     27 C          65.5290   91.3034   14.2539 C.ar    1  UNL1        0.2173
     28 N          65.3190   91.8843   15.6208 N.ar    1  UNL1       -0.2207
     29 C          66.3428   92.8105   16.2076 C.ar    1  UNL1        0.1089
     30 C          67.5765   93.1557   15.4274 C.ar    1  UNL1        0.0729
     31 BR         68.6002   94.0818   16.0142 Br      1  UNL1       -0.0458
     32 C          67.7865   92.5748   14.0605 C.ar    1  UNL1        0.1089
     33 N          66.7629   91.6487   13.4737 N.ar    1  UNL1       -0.2207
@<TRIPOS>BOND
     1     9     8    1
     2     9     1    1
     3     1     2   ar
     4     2     3   ar
     5     3    23    1
     6    23    24   am
     7    24    25    2
     8    24    27    1
     9    27    28   ar
    10    28    29   ar
    11    29    30   ar
    12    30    31    1
    13    30    32   ar
    14    32    33   ar
    15     3     4   ar
    16     4     5   ar
    17     5     6   ar
    18     6     7    1
    19     9    10    1
    20    10    11    1
    21    11    12    1
    22    12    13    1
    23    12    19    1
    24    19    20    1
    25    19    21    1
    26    19    22    1
    27    12    14    1
    28    14    15    1
    29    14    16    2
    30    16     9    1
    31     6     1   ar
    32    33    27   ar
    33    23    26    1
    34    15    17    1
    35    15    18    1
@<TRIPOS>MOLECULE
*****
 33 35 0 0 0
SMALL
GASTEIGER

@<TRIPOS>ATOM
      1 C          63.9783   86.2261   15.2443 C.ar    1  UNL1        0.0528
      2 C          64.5003   87.5016   14.6522 C.ar    1  UNL1        0.0167
      3 C          64.1703   88.8166   15.2939 C.ar    1  UNL1        0.0506
      4 C          63.3182   88.8561   16.5277 C.ar    1  UNL1        0.0170
      5 C          62.7961   87.5807   17.1198 C.ar    1  UNL1        0.0307
      6 C          63.1262   86.2657   16.4781 C.ar    1  UNL1        0.1402
      7 F          62.6041   84.9901   17.0702 F       1  UNL1       -0.2044
      8 C          65.6673   85.5462   14.6089 C.3     1  UNL1        0.0607
      9 C          64.3083   84.9111   14.6026 C.3     1  UNL1        0.2223
     10 C          62.8348   84.7327   14.8191 C.3     1  UNL1        0.1959
     11 O          62.1633   83.4599   14.3961 O.3     1  UNL1       -0.3357
     12 C          62.9653   82.3654   13.7566 C.3     1  UNL1        0.2740
     13 C          63.2954   81.0504   13.1149 C.3     1  UNL1        0.0512
     14 C          64.4388   82.5438   13.5401 C.2     1  UNL1        0.3217
     15 N          65.2409   81.4493   12.9006 N.pl3   1  UNL1       -0.2480
     16 N          65.1104   83.8166   13.9631 N.2     1  UNL1       -0.0692
     17 H          64.8001   80.6139   12.6230 H       1  UNL1        0.2882
     18 H          66.2080   81.5664   12.7585 H       1  UNL1        0.2882
     19 C          61.6064   81.7303   13.7502 C.3     1  UNL1        0.4305
     20 F          60.2474   81.0952   13.7439 F       1  UNL1       -0.1670
     21 F          61.6981   81.5489   12.2640 F       1  UNL1       -0.1670
     22 F          61.5147   81.9117   15.2364 F       1  UNL1       -0.1670
     23 N          64.6924   90.0921   14.7018 N.am    1  UNL1       -0.2779
     24 C          64.3734   90.4442   13.2790 C.2     1  UNL1        0.2855
     25 O          63.5323   89.5207   12.4483 O.2     1  UNL1       -0.2664
     26 H          65.2443   90.6982   15.2469 H       1  UNL1        0.1553
     27 C          64.8954   91.7196   12.6869 C.ar    1  UNL1        0.2173
     28 N          65.6543   92.6890   13.5439 N.ar    1  UNL1       -0.2207
     29 C          66.1763   93.9645   12.9517 C.ar    1  UNL1        0.1089
     30 C          65.9394   94.2706   11.5025 C.ar    1  UNL1        0.0729
     31 BR         66.4614   95.5461   10.9104 Br      1  UNL1       -0.0458
     32 C          65.1805   93.3013   10.6455 C.ar    1  UNL1        0.1089
     33 N          64.6585   92.0258   11.2376 N.ar    1  UNL1       -0.2207
@<TRIPOS>BOND
     1     9     8    1
     2     9     1    1
     3     1     2   ar
     4     2     3   ar
     5     3    23    1
     6    23    24   am
     7    24    25    2
     8    24    27    1
     9    27    28   ar
    10    28    29   ar
    11    29    30   ar
    12    30    31    1
    13    30    32   ar
    14    32    33   ar
    15     3     4   ar
    16     4     5   ar
    17     5     6   ar
    18     6     7    1
    19     9    10    1
    20    10    11    1
    21    11    12    1
    22    12    13    1
    23    12    19    1
    24    19    20    1
    25    19    21    1
    26    19    22    1
    27    12    14    1
    28    14    15    1
    29    14    16    2
    30    16     9    1
    31     6     1   ar
    32    33    27   ar
    33    23    26    1
    34    15    17    1
    35    15    18    1
@<TRIPOS>MOLECULE
*****
 33 35 0 0 0
SMALL
GASTEIGER

@<TRIPOS>ATOM
      1 C          63.0753   89.8987   11.6609 C.ar    1  UNL1        0.0528
      2 C          62.9846   88.4252   11.9267 C.ar    1  UNL1        0.0167
      3 C          62.1798   87.5469   11.0151 C.ar    1  UNL1        0.0506
      4 C          61.4659   88.1421    9.8378 C.ar    1  UNL1        0.0170
      5 C          61.5567   89.6155    9.5720 C.ar    1  UNL1        0.0307
      6 C          62.3614   90.4938   10.4836 C.ar    1  UNL1        0.1402
      7 F          62.4521   91.9674   10.2179 F       1  UNL1       -0.2044
      8 C          63.1674   89.9324   13.5868 C.3     1  UNL1        0.0607
      9 C          63.8800   90.7771   12.5725 C.3     1  UNL1        0.2223
     10 C          64.3132   91.3166   11.2417 C.3     1  UNL1        0.1959
     11 O          65.3035   92.4412   11.1746 O.3     1  UNL1       -0.3357
     12 C          65.8607   93.0262   12.4385 C.3     1  UNL1        0.2740
     13 C          66.6654   93.9046   13.3500 C.3     1  UNL1        0.0512
     14 C          65.4276   92.4867   13.7693 C.2     1  UNL1        0.3217
     15 N          65.9848   93.0717   15.0332 N.pl3   1  UNL1       -0.2480
     16 N          64.4373   91.3621   13.8364 N.2     1  UNL1       -0.0692
     17 H          66.6348   93.8098   14.9892 H       1  UNL1        0.2882
     18 H          65.7005   92.7175   15.9067 H       1  UNL1        0.2882
     19 C          66.5734   93.8709   11.4242 C.3     1  UNL1        0.4305
     20 F          67.2860   94.7155   10.4098 F       1  UNL1       -0.1670
     21 F          67.1835   92.6379   10.8261 F       1  UNL1       -0.1670
     22 F          65.9632   95.1037   12.0222 F       1  UNL1       -0.1670
     23 N          62.0891   86.0734   11.2808 N.am    1  UNL1       -0.2779
     24 C          62.7840   85.4818   12.4713 C.2     1  UNL1        0.2855
     25 O          63.5696   86.3637   13.3960 O.2     1  UNL1       -0.2664
     26 H          61.5734   85.4946   10.6739 H       1  UNL1        0.1553
     27 C          62.6932   84.0084   12.7370 C.ar    1  UNL1        0.2173
     28 N          62.9396   83.0295   11.6274 N.ar    1  UNL1       -0.2207
     29 C          62.8488   81.5560   11.8932 C.ar    1  UNL1        0.1089
     30 C          62.5117   81.0614   13.2686 C.ar    1  UNL1        0.0729
     31 BR         62.4209   79.5879   13.5343 Br      1  UNL1       -0.0458
     32 C          62.2653   82.0402   14.3782 C.ar    1  UNL1        0.1089
     33 N          62.3560   83.5137   14.1124 N.ar    1  UNL1       -0.2207
@<TRIPOS>BOND
     1     9     8    1
     2     9     1    1
     3     1     2   ar
     4     2     3   ar
     5     3    23    1
     6    23    24   am
     7    24    25    2
     8    24    27    1
     9    27    28   ar
    10    28    29   ar
    11    29    30   ar
    12    30    31    1
    13    30    32   ar
    14    32    33   ar
    15     3     4   ar
    16     4     5   ar
    17     5     6   ar
    18     6     7    1
    19     9    10    1
    20    10    11    1
    21    11    12    1
    22    12    13    1
    23    12    19    1
    24    19    20    1
    25    19    21    1
    26    19    22    1
    27    12    14    1
    28    14    15    1
    29    14    16    2
    30    16     9    1
    31     6     1   ar
    32    33    27   ar
    33    23    26    1
    34    15    17    1
    35    15    18    1
@<TRIPOS>MOLECULE
*****
 33 35 0 0 0
SMALL
GASTEIGER

@<TRIPOS>ATOM
      1 C          63.4682   89.9787   12.7712 C.ar    1  UNL1        0.0528
      2 C          63.2442   88.4978   12.8525 C.ar    1  UNL1        0.0167
      3 C          62.7749   87.7429   11.6443 C.ar    1  UNL1        0.0506
      4 C          62.5298   88.4689   10.3548 C.ar    1  UNL1        0.0170
      5 C          62.7539   89.9498   10.2735 C.ar    1  UNL1        0.0307
      6 C          63.2231   90.7047   11.4817 C.ar    1  UNL1        0.1402
      7 F          63.4472   92.1857   11.4004 F       1  UNL1       -0.2044
      8 C          62.5299   90.4249   14.3958 C.3     1  UNL1        0.0607
      9 C          63.9375   90.7338   13.9795 C.3     1  UNL1        0.2223
     10 C          65.1821   90.7804   13.1436 C.3     1  UNL1        0.1959
     11 O          66.4071   91.4748   13.6605 O.3     1  UNL1       -0.3357
     12 C          66.3874   92.1225   15.0134 C.3     1  UNL1        0.2740
     13 C          66.8566   92.8775   16.2216 C.3     1  UNL1        0.0512
     14 C          65.1429   92.0759   15.8492 C.2     1  UNL1        0.3217
     15 N          65.1232   92.7236   17.2020 N.pl3   1  UNL1       -0.2480
     16 N          63.9178   91.3815   15.3323 N.2     1  UNL1       -0.0692
     17 H          65.9272   93.1794   17.5413 H       1  UNL1        0.2882
     18 H          64.3063   92.6930   17.7507 H       1  UNL1        0.2882
     19 C          67.7951   92.4314   14.5971 C.3     1  UNL1        0.4305
     20 F          69.2027   92.7403   14.1808 F       1  UNL1       -0.1670
     21 F          67.2906   93.5248   13.7025 F       1  UNL1       -0.1670
     22 F          68.2994   91.3381   15.4916 F       1  UNL1       -0.1670
     23 N          62.5508   86.2619   11.7256 N.am    1  UNL1       -0.2779
     24 C          63.1139   85.4802   12.8753 C.2     1  UNL1        0.2855
     25 O          63.9010   86.1794   13.9438 O.2     1  UNL1       -0.2664
     26 H          62.0342   85.8030   11.0244 H       1  UNL1        0.1553
     27 C          62.8898   83.9993   12.9566 C.ar    1  UNL1        0.2173
     28 N          62.3864   83.3856   14.2295 N.ar    1  UNL1       -0.2207
     29 C          62.1623   81.9047   14.3107 C.ar    1  UNL1        0.1089
     30 C          62.4416   81.0374   13.1192 C.ar    1  UNL1        0.0729
     31 BR         62.2175   79.5565   13.2005 Br      1  UNL1       -0.0458
     32 C          62.9450   81.6510   11.8464 C.ar    1  UNL1        0.1089
     33 N          63.1691   83.1319   11.7651 N.ar    1  UNL1       -0.2207
@<TRIPOS>BOND
     1     9     8    1
     2     9     1    1
     3     1     2   ar
     4     2     3   ar
     5     3    23    1
     6    23    24   am
     7    24    25    2
     8    24    27    1
     9    27    28   ar
    10    28    29   ar
    11    29    30   ar
    12    30    31    1
    13    30    32   ar
    14    32    33   ar
    15     3     4   ar
    16     4     5   ar
    17     5     6   ar
    18     6     7    1
    19     9    10    1
    20    10    11    1
    21    11    12    1
    22    12    13    1
    23    12    19    1
    24    19    20    1
    25    19    21    1
    26    19    22    1
    27    12    14    1
    28    14    15    1
    29    14    16    2
    30    16     9    1
    31     6     1   ar
    32    33    27   ar
    33    23    26    1
    34    15    17    1
    35    15    18    1
@<TRIPOS>MOLECULE
*****
 33 35 0 0 0
SMALL
GASTEIGER

@<TRIPOS>ATOM
      1 C          61.9313   88.1042   10.6932 C.ar    1  UNL1        0.0528
      2 C          62.8415   89.2106   10.2491 C.ar    1  UNL1        0.0167
      3 C          62.3836   90.6367   10.3308 C.ar    1  UNL1        0.0506
      4 C          61.0156   90.9562   10.8565 C.ar    1  UNL1        0.0170
      5 C          60.1054   89.8498   11.3005 C.ar    1  UNL1        0.0307
      6 C          60.5633   88.4237   11.2189 C.ar    1  UNL1        0.1402
      7 F          59.6531   87.3171   11.6630 F       1  UNL1       -0.2044
      8 C          62.0392   86.9220    9.1735 C.3     1  UNL1        0.0607
      9 C          62.3892   86.6780   10.6116 C.3     1  UNL1        0.2223
     10 C          62.5801   86.9294   12.0780 C.3     1  UNL1        0.1959
     11 O          63.1074   85.8394   12.9634 O.3     1  UNL1       -0.3357
     12 C          63.4437   84.4980   12.3823 C.3     1  UNL1        0.2740
     13 C          63.9015   83.0719   12.3006 C.3     1  UNL1        0.0512
     14 C          63.2527   84.2466   10.9159 C.2     1  UNL1        0.3217
     15 N          63.5890   82.9052   10.3348 N.pl3   1  UNL1       -0.2480
     16 N          62.7255   85.3366   10.0305 N.2     1  UNL1       -0.0692
     17 H          63.9351   82.1898   10.9159 H       1  UNL1        0.2882
     18 H          63.4637   82.7403    9.3724 H       1  UNL1        0.2882
     19 C          63.7937   84.2540   13.8204 C.3     1  UNL1        0.4305
     20 F          64.1436   84.0101   15.2585 F       1  UNL1       -0.1670
     21 F          65.2496   84.2233   13.4608 F       1  UNL1       -0.1670
     22 F          62.3377   84.2848   14.1798 F       1  UNL1       -0.1670
     23 N          63.2938   91.7433    9.8867 N.am    1  UNL1       -0.2779
     24 C          64.3849   92.2271   10.7952 C.2     1  UNL1        0.2855
     25 O          64.5658   91.6043   12.1479 O.2     1  UNL1       -0.2664
     26 H          63.1751   92.1520    8.9989 H       1  UNL1        0.1553
     27 C          65.2950   93.3336   10.3512 C.ar    1  UNL1        0.2173
     28 N          64.8656   94.7631   10.4996 N.ar    1  UNL1       -0.2207
     29 C          65.7758   95.8697   10.0555 C.ar    1  UNL1        0.1089
     30 C          67.1154   95.5467    9.4631 C.ar    1  UNL1        0.0729
     31 BR         68.0256   96.6532    9.0191 Br      1  UNL1       -0.0458
     32 C          67.5449   94.1171    9.3147 C.ar    1  UNL1        0.1089
     33 N          66.6347   93.0106    9.7587 N.ar    1  UNL1       -0.2207
@<TRIPOS>BOND
     1     9     8    1
     2     9     1    1
     3     1     2   ar
     4     2     3   ar
     5     3    23    1
     6    23    24   am
     7    24    25    2
     8    24    27    1
     9    27    28   ar
    10    28    29   ar
    11    29    30   ar
    12    30    31    1
    13    30    32   ar
    14    32    33   ar
    15     3     4   ar
    16     4     5   ar
    17     5     6   ar
    18     6     7    1
    19     9    10    1
    20    10    11    1
    21    11    12    1
    22    12    13    1
    23    12    19    1
    24    19    20    1
    25    19    21    1
    26    19    22    1
    27    12    14    1
    28    14    15    1
    29    14    16    2
    30    16     9    1
    31     6     1   ar
    32    33    27   ar
    33    23    26    1
    34    15    17    1
    35    15    18    1
@<TRIPOS>MOLECULE
*****
 33 35 0 0 0
SMALL
GASTEIGER

@<TRIPOS>ATOM
      1 C          62.2850   89.9408   11.3116 C.ar    1  UNL1        0.0528
      2 C          62.4436   88.4573   11.4664 C.ar    1  UNL1        0.0167
      3 C          61.2337   87.5707   11.4759 C.ar    1  UNL1        0.0506
      4 C          59.8653   88.1676   11.3305 C.ar    1  UNL1        0.0170
      5 C          59.7067   89.6511   11.1757 C.ar    1  UNL1        0.0307
      6 C          60.9166   90.5377   11.1662 C.ar    1  UNL1        0.1402
      7 F          60.7580   92.0213   11.0113 F       1  UNL1       -0.2044
      8 C          63.1536   90.8369    9.8414 C.3     1  UNL1        0.0607
      9 C          63.4949   90.8275   11.3021 C.3     1  UNL1        0.2223
     10 C          63.4160   90.5103   12.7660 C.3     1  UNL1        0.1959
     11 O          64.4284   91.0829   13.7131 O.3     1  UNL1       -0.3357
     12 C          65.5197   91.9728   13.1963 C.3     1  UNL1        0.2740
     13 C          66.7295   92.8595   13.1868 C.3     1  UNL1        0.0512
     14 C          65.5986   92.2901   11.7324 C.2     1  UNL1        0.3217
     15 N          66.6900   93.1800   11.2156 N.pl3   1  UNL1       -0.2480
     16 N          64.5862   91.7175   10.7853 N.2     1  UNL1       -0.0692
     17 H          67.3545   93.5559   11.8373 H       1  UNL1        0.2882
     18 H          66.7418   93.3883   10.2548 H       1  UNL1        0.2882
     19 C          65.8610   91.9635   14.6570 C.3     1  UNL1        0.4305
     20 F          66.2023   91.9542   16.1177 F       1  UNL1       -0.1670
     21 F          66.0559   93.4504   14.6209 F       1  UNL1       -0.1670
     22 F          65.6660   90.4767   14.6930 F       1  UNL1       -0.1670
     23 N          61.3923   86.0871   11.6308 N.am    1  UNL1       -0.2779
     24 C          62.4338   85.5371   12.5596 C.2     1  UNL1        0.2855
     25 O          63.3169   86.4706   13.3334 O.2     1  UNL1       -0.2664
     26 H          60.8127   85.4744   11.1229 H       1  UNL1        0.1553
     27 C          62.5924   84.0536   12.7145 C.ar    1  UNL1        0.2173
     28 N          62.3313   83.4060   14.0420 N.ar    1  UNL1       -0.2207
     29 C          62.4899   81.9224   14.1969 C.ar    1  UNL1        0.1089
     30 C          62.9096   81.0865   13.0242 C.ar    1  UNL1        0.0729
     31 BR         63.0681   79.6030   13.1791 Br      1  UNL1       -0.0458
     32 C          63.1706   81.7341   11.6967 C.ar    1  UNL1        0.1089
     33 N          63.0121   83.2176   11.5418 N.ar    1  UNL1       -0.2207
@<TRIPOS>BOND
     1     9     8    1
     2     9     1    1
     3     1     2   ar
     4     2     3   ar
     5     3    23    1
     6    23    24   am
     7    24    25    2
     8    24    27    1
     9    27    28   ar
    10    28    29   ar
    11    29    30   ar
    12    30    31    1
    13    30    32   ar
    14    32    33   ar
    15     3     4   ar
    16     4     5   ar
    17     5     6   ar
    18     6     7    1
    19     9    10    1
    20    10    11    1
    21    11    12    1
    22    12    13    1
    23    12    19    1
    24    19    20    1
    25    19    21    1
    26    19    22    1
    27    12    14    1
    28    14    15    1
    29    14    16    2
    30    16     9    1
    31     6     1   ar
    32    33    27   ar
    33    23    26    1
    34    15    17    1
    35    15    18    1
