@<TRIPOS>MOLECULE
*****
 31 34 0 0 0
SMALL
GASTEIGER

@<TRIPOS>ATOM
      1 C          66.0835   93.5252   12.6928 C.ar    1  UNL1        0.0533
      2 C          66.8675   93.9276   13.9067 C.ar    1  UNL1        0.0148
      3 C          66.7980   93.0969   15.1537 C.ar    1  UNL1        0.0029
      4 C          65.9445   91.8638   15.1869 C.ar    1  UNL1        0.0208
      5 C          65.1606   91.4614   13.9730 C.ar    1  UNL1        0.1052
      6 C          65.2301   92.2921   12.7260 C.ar    1  UNL1        0.0536
      7 C          64.3525   91.6508   11.6923 C.ar    1  UNL1        0.1247
      8 N          63.7407   90.4237   12.3005 N.ar    1  UNL1       -0.1467
      9 N          64.2401   90.3067   13.7101 N.ar    1  UNL1       -0.1274
     10 C          67.0652   93.9522   10.3256 C.2     1  UNL1        0.2275
     11 O          67.9081   92.7178   10.4525 O.2     1  UNL1       -0.2747
     12 N          66.1530   94.3559   11.4457 N.am    1  UNL1       -0.2838
     13 H          65.5998   95.1661   11.3624 H       1  UNL1        0.1549
     14 C          67.1347   94.7828    9.0784 C.3     1  UNL1        0.1022
     15 N          64.9891   96.2089    9.4139 N.3     1  UNL1       -0.3207
     16 C          66.4327   96.1070    9.0192 C.3     1  UNL1        0.0748
     17 H          64.6765   97.1746    9.3134 H       1  UNL1        0.1189
     18 H          64.8806   95.9157   10.3848 H       1  UNL1        0.1189
     19 S          63.8819   89.2248   14.6854 S.O2    1  UNL1        0.1006
     20 O          62.4624   89.7094   14.7016 O.2     1  UNL1       -0.1463
     21 O          65.3014   88.7403   14.6693 O.2     1  UNL1       -0.1463
     22 C          63.5237   88.1430   15.6608 C.ar    1  UNL1        0.1291
     23 C          63.0984   88.5001   17.0542 C.ar    1  UNL1        0.0204
     24 C          62.7402   87.4183   18.0295 C.ar    1  UNL1        0.0014
     25 C          62.8073   85.9793   17.6115 C.ar    1  UNL1        0.0001
     26 C          63.2325   85.6221   16.2181 C.ar    1  UNL1        0.0013
     27 C          63.2995   84.1831   15.8000 C.ar    1  UNL1        0.0000
     28 C          63.7248   83.8260   14.4066 C.ar    1  UNL1        0.0000
     29 C          64.0830   84.9078   13.4313 C.ar    1  UNL1        0.0000
     30 C          64.0159   86.3468   13.8493 C.ar    1  UNL1        0.0013
     31 C          63.5907   86.7040   15.2427 C.ar    1  UNL1        0.0191
@<TRIPOS>BOND
     1    15    16    1
     2    16    14    1
     3    14    10    1
     4    10    11    2
     5    10    12   am
     6    12     1    1
     7     1     2   ar
     8     2     3   ar
     9     3     4   ar
    10     4     5   ar
    11     5     6   ar
    12     6     7   ar
    13     7     8   ar
    14     8     9   ar
    15     9    19    1
    16    19    20    2
    17    19    21    2
    18    19    22    1
    19    22    23   ar
    20    23    24   ar
    21    24    25   ar
    22    25    26   ar
    23    26    27   ar
    24    27    28   ar
    25    28    29   ar
    26    29    30   ar
    27    30    31   ar
    28     6     1   ar
    29    31    22   ar
    30     9     5   ar
    31    31    26   ar
    32    15    17    1
    33    15    18    1
    34    12    13    1
@<TRIPOS>MOLECULE
*****
 31 34 0 0 0
SMALL
GASTEIGER

@<TRIPOS>ATOM
      1 C          63.7740   90.3990   12.4537 C.ar    1  UNL1        0.0533
      2 C          63.0635   90.3673   11.1331 C.ar    1  UNL1        0.0148
      3 C          62.4943   89.0784   10.6184 C.ar    1  UNL1        0.0029
      4 C          62.6357   87.8213   11.4244 C.ar    1  UNL1        0.0208
      5 C          63.3462   87.8530   12.7450 C.ar    1  UNL1        0.1052
      6 C          63.9154   89.1419   13.2597 C.ar    1  UNL1        0.0536
      7 C          64.5591   88.8673   14.5865 C.ar    1  UNL1        0.1247
      8 N          64.3877   87.4087   14.8917 N.ar    1  UNL1       -0.1467
      9 N          63.6381   86.7818   13.7537 N.ar    1  UNL1       -0.1274
     10 C          65.3448   92.4459   12.1485 C.2     1  UNL1        0.2275
     11 O          65.7771   91.9150   10.8138 O.2     1  UNL1       -0.2747
     12 N          64.3432   91.6879   12.9685 N.am    1  UNL1       -0.2838
     13 H          64.0595   92.0363   13.8445 H       1  UNL1        0.1549
     14 C          65.9140   93.7347   12.6632 C.3     1  UNL1        0.1022
     15 N          65.9153   93.1448   15.1934 N.3     1  UNL1       -0.3207
     16 C          66.5799   93.7770   14.0066 C.3     1  UNL1        0.0748
     17 H          66.5036   93.2668   16.0177 H       1  UNL1        0.1189
     18 H          65.7796   92.1494   15.0169 H       1  UNL1        0.1189
     19 S          63.2488   85.3374   13.6436 S.O2    1  UNL1        0.1006
     20 O          64.4586   84.9505   14.4416 O.2     1  UNL1       -0.1463
     21 O          62.0390   85.7243   12.8456 O.2     1  UNL1       -0.1463
     22 C          62.8595   83.8930   13.5335 C.ar    1  UNL1        0.1291
     23 C          62.1431   83.2209   14.6670 C.ar    1  UNL1        0.0204
     24 C          61.7537   81.7765   14.5569 C.ar    1  UNL1        0.0014
     25 C          62.0808   81.0042   13.3133 C.ar    1  UNL1        0.0001
     26 C          62.7973   81.6764   12.1797 C.ar    1  UNL1        0.0013
     27 C          63.1243   80.9041   10.9361 C.ar    1  UNL1        0.0000
     28 C          63.8407   81.5763    9.8026 C.ar    1  UNL1        0.0000
     29 C          64.2301   83.0207    9.9127 C.ar    1  UNL1        0.0000
     30 C          63.9030   83.7930   11.1563 C.ar    1  UNL1        0.0013
     31 C          63.1866   83.1208   12.2898 C.ar    1  UNL1        0.0191
@<TRIPOS>BOND
     1    15    16    1
     2    16    14    1
     3    14    10    1
     4    10    11    2
     5    10    12   am
     6    12     1    1
     7     1     2   ar
     8     2     3   ar
     9     3     4   ar
    10     4     5   ar
    11     5     6   ar
    12     6     7   ar
    13     7     8   ar
    14     8     9   ar
    15     9    19    1
    16    19    20    2
    17    19    21    2
    18    19    22    1
    19    22    23   ar
    20    23    24   ar
    21    24    25   ar
    22    25    26   ar
    23    26    27   ar
    24    27    28   ar
    25    28    29   ar
    26    29    30   ar
    27    30    31   ar
    28     6     1   ar
    29    31    22   ar
    30     9     5   ar
    31    31    26   ar
    32    15    17    1
    33    15    18    1
    34    12    13    1
@<TRIPOS>MOLECULE
*****
 31 34 0 0 0
SMALL
GASTEIGER

@<TRIPOS>ATOM
      1 C          64.3994   92.2675   10.9136 C.ar    1  UNL1        0.0533
      2 C          63.4743   91.5408    9.9830 C.ar    1  UNL1        0.0148
      3 C          62.7877   90.2865   10.4361 C.ar    1  UNL1        0.0029
      4 C          63.0263   89.7588   11.8198 C.ar    1  UNL1        0.0208
      5 C          63.9514   90.4855   12.7504 C.ar    1  UNL1        0.1052
      6 C          64.6380   91.7399   12.2973 C.ar    1  UNL1        0.0536
      7 C          65.4891   92.2368   13.4280 C.ar    1  UNL1        0.1247
      8 N          65.3286   91.2895   14.5800 N.ar    1  UNL1       -0.1467
      9 N          64.3783   90.2072   14.1612 N.ar    1  UNL1       -0.1274
     10 C          66.5472   93.4968   10.1226 C.2     1  UNL1        0.2275
     11 O          67.3218   92.2174   10.2378 O.2     1  UNL1       -0.2747
     12 N          65.0860   93.5219   10.4605 N.am    1  UNL1       -0.2838
     13 H          64.5776   94.3616   10.3849 H       1  UNL1        0.1549
     14 C          67.2339   94.7511    9.6696 C.3     1  UNL1        0.1022
     15 N          65.9795   96.1050   11.4981 N.3     1  UNL1       -0.3207
     16 C          66.9012   96.0635   10.3154 C.3     1  UNL1        0.0748
     17 H          65.8654   97.0706   11.8065 H       1  UNL1        0.1189
     18 H          66.3750   95.5501   12.2571 H       1  UNL1        0.1189
     19 S          63.9329   89.0498   15.0050 S.O2    1  UNL1        0.1006
     20 O          65.2784   88.4087   14.8357 O.2     1  UNL1       -0.1463
     21 O          62.5874   89.6908   15.1743 O.2     1  UNL1       -0.1463
     22 C          63.4876   87.8923   15.8488 C.ar    1  UNL1        0.1291
     23 C          63.0766   88.1173   17.2737 C.ar    1  UNL1        0.0204
     24 C          62.6313   86.9599   18.1175 C.ar    1  UNL1        0.0014
     25 C          62.5970   85.5775   17.5365 C.ar    1  UNL1        0.0001
     26 C          63.0080   85.3524   16.1115 C.ar    1  UNL1        0.0013
     27 C          62.9737   83.9700   15.5304 C.ar    1  UNL1        0.0000
     28 C          63.3847   83.7450   14.1055 C.ar    1  UNL1        0.0000
     29 C          63.8300   84.9025   13.2617 C.ar    1  UNL1        0.0000
     30 C          63.8643   86.2849   13.8428 C.ar    1  UNL1        0.0013
     31 C          63.4533   86.5099   15.2677 C.ar    1  UNL1        0.0191
@<TRIPOS>BOND
     1    15    16    1
     2    16    14    1
     3    14    10    1
     4    10    11    2
     5    10    12   am
     6    12     1    1
     7     1     2   ar
     8     2     3   ar
     9     3     4   ar
    10     4     5   ar
    11     5     6   ar
    12     6     7   ar
    13     7     8   ar
    14     8     9   ar
    15     9    19    1
    16    19    20    2
    17    19    21    2
    18    19    22    1
    19    22    23   ar
    20    23    24   ar
    21    24    25   ar
    22    25    26   ar
    23    26    27   ar
    24    27    28   ar
    25    28    29   ar
    26    29    30   ar
    27    30    31   ar
    28     6     1   ar
    29    31    22   ar
    30     9     5   ar
    31    31    26   ar
    32    15    17    1
    33    15    18    1
    34    12    13    1
@<TRIPOS>MOLECULE
*****
 31 34 0 0 0
SMALL
GASTEIGER

@<TRIPOS>ATOM
      1 C          59.2908   88.5031    7.6494 C.ar    1  UNL1        0.0533
      2 C          59.3549   87.1577    6.9893 C.ar    1  UNL1        0.0148
      3 C          60.1450   86.0496    7.6202 C.ar    1  UNL1        0.0029
      4 C          60.8711   86.2870    8.9111 C.ar    1  UNL1        0.0208
      5 C          60.8070   87.6324    9.5712 C.ar    1  UNL1        0.1052
      6 C          60.0169   88.7404    8.9404 C.ar    1  UNL1        0.0536
      7 C          60.1362   89.9519    9.8167 C.ar    1  UNL1        0.1247
      8 N          61.0001   89.5926   10.9892 N.ar    1  UNL1       -0.1467
      9 N          61.4147   88.1590   10.8374 N.ar    1  UNL1       -0.1274
     10 C          59.1010   90.4229    5.9093 C.2     1  UNL1        0.2275
     11 O          60.4914   90.1264    5.4306 O.2     1  UNL1       -0.2747
     12 N          58.5007   89.6112    7.0187 N.am    1  UNL1       -0.2838
     13 H          57.5882   89.8057    7.3328 H       1  UNL1        0.1549
     14 C          58.3109   91.5310    5.2784 C.3     1  UNL1        0.1022
     15 N          55.9627   90.4396    5.4895 N.3     1  UNL1       -0.3207
     16 C          56.9519   91.2526    4.7081 C.3     1  UNL1        0.0748
     17 H          55.0985   90.3501    4.9551 H       1  UNL1        0.1189
     18 H          55.7673   90.9029    6.3769 H       1  UNL1        0.1189
     19 S          62.2843   87.3876   11.7854 S.O2    1  UNL1        0.1006
     20 O          61.2299   86.3256   11.8884 O.2     1  UNL1       -0.1463
     21 O          63.3386   88.4495   11.6825 O.2     1  UNL1       -0.1463
     22 C          63.1538   86.6161   12.7334 C.ar    1  UNL1        0.1291
     23 C          63.8366   87.3213   13.8677 C.ar    1  UNL1        0.0204
     24 C          64.7062   86.5498   14.8157 C.ar    1  UNL1        0.0014
     25 C          64.8930   85.0732   14.6295 C.ar    1  UNL1        0.0001
     26 C          64.2101   84.3680   13.4952 C.ar    1  UNL1        0.0013
     27 C          64.3969   82.8914   13.3090 C.ar    1  UNL1        0.0000
     28 C          63.7141   82.1862   12.1747 C.ar    1  UNL1        0.0000
     29 C          62.8446   82.9577   11.2267 C.ar    1  UNL1        0.0000
     30 C          62.6578   84.4343   11.4129 C.ar    1  UNL1        0.0013
     31 C          63.3406   85.1394   12.5472 C.ar    1  UNL1        0.0191
@<TRIPOS>BOND
     1    15    16    1
     2    16    14    1
     3    14    10    1
     4    10    11    2
     5    10    12   am
     6    12     1    1
     7     1     2   ar
     8     2     3   ar
     9     3     4   ar
    10     4     5   ar
    11     5     6   ar
    12     6     7   ar
    13     7     8   ar
    14     8     9   ar
    15     9    19    1
    16    19    20    2
    17    19    21    2
    18    19    22    1
    19    22    23   ar
    20    23    24   ar
    21    24    25   ar
    22    25    26   ar
    23    26    27   ar
    24    27    28   ar
    25    28    29   ar
    26    29    30   ar
    27    30    31   ar
    28     6     1   ar
    29    31    22   ar
    30     9     5   ar
    31    31    26   ar
    32    15    17    1
    33    15    18    1
    34    12    13    1
@<TRIPOS>MOLECULE
*****
 31 34 0 0 0
SMALL
GASTEIGER

@<TRIPOS>ATOM
      1 C          64.2743   91.2322   12.7761 C.ar    1  UNL1        0.0533
      2 C          64.8853   91.2655   14.1456 C.ar    1  UNL1        0.0148
      3 C          64.9049   90.0249   14.9885 C.ar    1  UNL1        0.0029
      4 C          64.3134   88.7509   14.4620 C.ar    1  UNL1        0.0208
      5 C          63.7024   88.7176   13.0925 C.ar    1  UNL1        0.1052
      6 C          63.6828   89.9583   12.2496 C.ar    1  UNL1        0.0536
      7 C          63.0164   89.6238   10.9480 C.ar    1  UNL1        0.1247
      8 N          62.6242   88.1765   10.9866 N.ar    1  UNL1       -0.1467
      9 N          63.0481   87.6165   12.3119 N.ar    1  UNL1       -0.1274
     10 C          65.5380   93.0379   11.4006 C.2     1  UNL1        0.2275
     11 O          66.8409   92.3625   11.7110 O.2     1  UNL1       -0.2747
     12 N          64.2546   92.4728   11.9331 N.am    1  UNL1       -0.2838
     13 H          63.3995   92.9160   11.7294 H       1  UNL1        0.1549
     14 C          65.5184   94.2785   10.5576 C.3     1  UNL1        0.1022
     15 N          67.9650   94.2695    9.6833 N.3     1  UNL1       -0.3207
     16 C          66.7966   95.0076   10.2664 C.3     1  UNL1        0.0748
     17 H          68.7435   94.9152    9.5514 H       1  UNL1        0.1189
     18 H          67.6994   93.8688    8.7837 H       1  UNL1        0.1189
     19 S          62.8522   86.2034   12.7753 S.O2    1  UNL1        0.1006
     20 O          61.6211   86.0952   11.9252 O.2     1  UNL1       -0.1463
     21 O          64.0833   86.3115   13.6255 O.2     1  UNL1       -0.1463
     22 C          62.6563   84.7902   13.2388 C.ar    1  UNL1        0.1291
     23 C          62.1681   84.5183   14.6307 C.ar    1  UNL1        0.0204
     24 C          61.9721   83.1052   15.0942 C.ar    1  UNL1        0.0014
     25 C          62.2644   81.9640   14.1656 C.ar    1  UNL1        0.0001
     26 C          62.7527   82.2360   12.7735 C.ar    1  UNL1        0.0013
     27 C          63.0449   81.0948   11.8450 C.ar    1  UNL1        0.0000
     28 C          63.5331   81.3667   10.4530 C.ar    1  UNL1        0.0000
     29 C          63.7291   82.7798    9.9896 C.ar    1  UNL1        0.0000
     30 C          63.4368   83.9210   10.9181 C.ar    1  UNL1        0.0013
     31 C          62.9486   83.6491   12.3101 C.ar    1  UNL1        0.0191
@<TRIPOS>BOND
     1    15    16    1
     2    16    14    1
     3    14    10    1
     4    10    11    2
     5    10    12   am
     6    12     1    1
     7     1     2   ar
     8     2     3   ar
     9     3     4   ar
    10     4     5   ar
    11     5     6   ar
    12     6     7   ar
    13     7     8   ar
    14     8     9   ar
    15     9    19    1
    16    19    20    2
    17    19    21    2
    18    19    22    1
    19    22    23   ar
    20    23    24   ar
    21    24    25   ar
    22    25    26   ar
    23    26    27   ar
    24    27    28   ar
    25    28    29   ar
    26    29    30   ar
    27    30    31   ar
    28     6     1   ar
    29    31    22   ar
    30     9     5   ar
    31    31    26   ar
    32    15    17    1
    33    15    18    1
    34    12    13    1
@<TRIPOS>MOLECULE
*****
 31 34 0 0 0
SMALL
GASTEIGER

@<TRIPOS>ATOM
      1 C          64.6225   89.9108   14.5145 C.ar    1  UNL1        0.0533
      2 C          64.8216   88.4919   14.9584 C.ar    1  UNL1        0.0148
      3 C          64.1996   87.3690   14.1824 C.ar    1  UNL1        0.0029
      4 C          63.3786   87.6649   12.9625 C.ar    1  UNL1        0.0208
      5 C          63.1795   89.0838   12.5185 C.ar    1  UNL1        0.1052
      6 C          63.8014   90.2067   13.2945 C.ar    1  UNL1        0.0536
      7 C          63.4334   91.4954   12.6207 C.ar    1  UNL1        0.1247
      8 N          62.5841   91.1688   11.4282 N.ar    1  UNL1       -0.1467
      9 N          62.4271   89.6784   11.3651 N.ar    1  UNL1       -0.1274
     10 C          66.3621   91.8326   14.6883 C.2     1  UNL1        0.2275
     11 O          66.8580   91.5083   13.3102 O.2     1  UNL1       -0.2747
     12 N          65.2444   91.0338   15.2905 N.am    1  UNL1       -0.2838
     13 H          64.9190   91.2466   16.1949 H       1  UNL1        0.1549
     14 C          66.9841   92.9556   15.4642 C.3     1  UNL1        0.1022
     15 N          69.3128   92.4129   14.4478 N.3     1  UNL1       -0.3207
     16 C          68.4731   93.1368   15.4583 C.3     1  UNL1        0.0748
     17 H          70.2946   92.6509   14.5884 H       1  UNL1        0.1189
     18 H          69.0272   92.6887   13.5082 H       1  UNL1        0.1189
     19 S          61.6536   88.9163   10.3302 S.O2    1  UNL1        0.1006
     20 O          60.9766   88.1313   11.4143 O.2     1  UNL1       -0.1463
     21 O          62.3306   89.7013    9.2461 O.2     1  UNL1       -0.1463
     22 C          60.8801   88.1543    9.2953 C.ar    1  UNL1        0.1291
     23 C          59.5268   88.6368    8.8644 C.ar    1  UNL1        0.0204
     24 C          58.7533   87.8747    7.8296 C.ar    1  UNL1        0.0014
     25 C          59.3331   86.6302    7.2256 C.ar    1  UNL1        0.0001
     26 C          60.6864   86.1476    7.6565 C.ar    1  UNL1        0.0013
     27 C          61.2662   84.9030    7.0525 C.ar    1  UNL1        0.0000
     28 C          62.6195   84.4204    7.4834 C.ar    1  UNL1        0.0000
     29 C          63.3930   85.1825    8.5183 C.ar    1  UNL1        0.0000
     30 C          62.8132   86.4271    9.1223 C.ar    1  UNL1        0.0013
     31 C          61.4599   86.9096    8.6914 C.ar    1  UNL1        0.0191
@<TRIPOS>BOND
     1    15    16    1
     2    16    14    1
     3    14    10    1
     4    10    11    2
     5    10    12   am
     6    12     1    1
     7     1     2   ar
     8     2     3   ar
     9     3     4   ar
    10     4     5   ar
    11     5     6   ar
    12     6     7   ar
    13     7     8   ar
    14     8     9   ar
    15     9    19    1
    16    19    20    2
    17    19    21    2
    18    19    22    1
    19    22    23   ar
    20    23    24   ar
    21    24    25   ar
    22    25    26   ar
    23    26    27   ar
    24    27    28   ar
    25    28    29   ar
    26    29    30   ar
    27    30    31   ar
    28     6     1   ar
    29    31    22   ar
    30     9     5   ar
    31    31    26   ar
    32    15    17    1
    33    15    18    1
    34    12    13    1
@<TRIPOS>MOLECULE
*****
 31 34 0 0 0
SMALL
GASTEIGER

@<TRIPOS>ATOM
      1 C          63.5972   90.1149   13.7556 C.ar    1  UNL1        0.0533
      2 C          62.9962   90.5485   12.4515 C.ar    1  UNL1        0.0148
      3 C          62.6609   89.5284   11.4041 C.ar    1  UNL1        0.0029
      4 C          62.9266   88.0746   11.6609 C.ar    1  UNL1        0.0208
      5 C          63.5276   87.6410   12.9650 C.ar    1  UNL1        0.1052
      6 C          63.8629   88.6611   14.0124 C.ar    1  UNL1        0.0536
      7 C          64.4423   87.9400   15.1931 C.ar    1  UNL1        0.1247
      8 N          64.4652   86.4742   14.8755 N.ar    1  UNL1       -0.1467
      9 N          63.8998   86.2894   13.4984 N.ar    1  UNL1       -0.1274
     10 C          65.3465   91.6095   14.9622 C.2     1  UNL1        0.2275
     11 O          66.4252   91.0639   14.0739 O.2     1  UNL1       -0.2747
     12 N          63.9325   91.1350   14.8030 N.am    1  UNL1       -0.2838
     13 H          63.2245   91.4930   15.3860 H       1  UNL1        0.1549
     14 C          65.6819   92.6296   16.0096 C.3     1  UNL1        0.1022
     15 N          68.2228   92.0963   16.1078 N.3     1  UNL1       -0.3207
     16 C          67.0996   93.0876   16.1836 C.3     1  UNL1        0.0748
     17 H          69.1112   92.5777   16.2475 H       1  UNL1        0.1189
     18 H          68.2194   91.6480   15.1915 H       1  UNL1        0.1189
     19 S          63.7356   84.9825   12.7808 S.O2    1  UNL1        0.1006
     20 O          65.0122   84.4862   13.3924 O.2     1  UNL1       -0.1463
     21 O          62.4590   85.4787   12.1693 O.2     1  UNL1       -0.1463
     22 C          63.5713   83.6755   12.0632 C.ar    1  UNL1        0.1291
     23 C          64.1151   83.5085   10.6753 C.ar    1  UNL1        0.0204
     24 C          63.9509   82.2015    9.9577 C.ar    1  UNL1        0.0014
     25 C          63.2428   81.0617   10.6280 C.ar    1  UNL1        0.0001
     26 C          62.6989   81.2287   12.0159 C.ar    1  UNL1        0.0013
     27 C          61.9908   80.0889   12.6862 C.ar    1  UNL1        0.0000
     28 C          61.4470   80.2560   14.0741 C.ar    1  UNL1        0.0000
     29 C          61.6113   81.5629   14.7917 C.ar    1  UNL1        0.0000
     30 C          62.3194   82.7027   14.1215 C.ar    1  UNL1        0.0013
     31 C          62.8632   82.5356   12.7336 C.ar    1  UNL1        0.0191
@<TRIPOS>BOND
     1    15    16    1
     2    16    14    1
     3    14    10    1
     4    10    11    2
     5    10    12   am
     6    12     1    1
     7     1     2   ar
     8     2     3   ar
     9     3     4   ar
    10     4     5   ar
    11     5     6   ar
    12     6     7   ar
    13     7     8   ar
    14     8     9   ar
    15     9    19    1
    16    19    20    2
    17    19    21    2
    18    19    22    1
    19    22    23   ar
    20    23    24   ar
    21    24    25   ar
    22    25    26   ar
    23    26    27   ar
    24    27    28   ar
    25    28    29   ar
    26    29    30   ar
    27    30    31   ar
    28     6     1   ar
    29    31    22   ar
    30     9     5   ar
    31    31    26   ar
    32    15    17    1
    33    15    18    1
    34    12    13    1
@<TRIPOS>MOLECULE
*****
 31 34 0 0 0
SMALL
GASTEIGER

@<TRIPOS>ATOM
      1 C          61.8879   86.7659   11.0164 C.ar    1  UNL1        0.0533
      2 C          62.3884   85.6210   11.8463 C.ar    1  UNL1        0.0148
      3 C          63.2844   85.8815   13.0208 C.ar    1  UNL1        0.0029
      4 C          63.6798   87.2868   13.3654 C.ar    1  UNL1        0.0208
      5 C          63.1793   88.4316   12.5354 C.ar    1  UNL1        0.1052
      6 C          62.2834   88.1712   11.3609 C.ar    1  UNL1        0.0536
      7 C          61.9488   89.4910   10.7315 C.ar    1  UNL1        0.1247
      8 N          62.6380   90.5671   11.5170 N.ar    1  UNL1       -0.1467
      9 N          63.3985   89.9124   12.6319 N.ar    1  UNL1       -0.1274
     10 C          61.5621   85.9415    8.5742 C.2     1  UNL1        0.2275
     11 O          63.0282   85.6379    8.4811 O.2     1  UNL1       -0.2747
     12 N          60.9920   86.5055    9.8418 N.am    1  UNL1       -0.2838
     13 H          60.0298   86.7047    9.9029 H       1  UNL1        0.1549
     14 C          60.6662   85.6811    7.3996 C.3     1  UNL1        0.1022
     15 N          58.3440   86.7310    7.9048 N.3     1  UNL1       -0.3207
     16 C          59.5782   86.6548    7.0558 C.3     1  UNL1        0.0748
     17 H          57.7157   87.4409    7.5285 H       1  UNL1        0.1189
     18 H          58.6031   86.9782    8.8599 H       1  UNL1        0.1189
     19 S          64.2318   90.6151   13.6623 S.O2    1  UNL1        0.1006
     20 O          64.5800   89.2940   14.2816 O.2     1  UNL1       -0.1463
     21 O          63.8836   91.9361   13.0431 O.2     1  UNL1       -0.1463
     22 C          65.0652   91.3177   14.6928 C.ar    1  UNL1        0.1291
     23 C          64.4701   91.6742   16.0227 C.ar    1  UNL1        0.0204
     24 C          65.3035   92.3769   17.0531 C.ar    1  UNL1        0.0014
     25 C          66.7319   92.7231   16.7536 C.ar    1  UNL1        0.0001
     26 C          67.3270   92.3666   15.4236 C.ar    1  UNL1        0.0013
     27 C          68.7554   92.7128   15.1241 C.ar    1  UNL1        0.0000
     28 C          69.3505   92.3563   13.7942 C.ar    1  UNL1        0.0000
     29 C          68.5171   91.6536   12.7638 C.ar    1  UNL1        0.0000
     30 C          67.0887   91.3074   13.0633 C.ar    1  UNL1        0.0013
     31 C          66.4937   91.6639   14.3932 C.ar    1  UNL1        0.0191
@<TRIPOS>BOND
     1    15    16    1
     2    16    14    1
     3    14    10    1
     4    10    11    2
     5    10    12   am
     6    12     1    1
     7     1     2   ar
     8     2     3   ar
     9     3     4   ar
    10     4     5   ar
    11     5     6   ar
    12     6     7   ar
    13     7     8   ar
    14     8     9   ar
    15     9    19    1
    16    19    20    2
    17    19    21    2
    18    19    22    1
    19    22    23   ar
    20    23    24   ar
    21    24    25   ar
    22    25    26   ar
    23    26    27   ar
    24    27    28   ar
    25    28    29   ar
    26    29    30   ar
    27    30    31   ar
    28     6     1   ar
    29    31    22   ar
    30     9     5   ar
    31    31    26   ar
    32    15    17    1
    33    15    18    1
    34    12    13    1
@<TRIPOS>MOLECULE
*****
 31 34 0 0 0
SMALL
GASTEIGER

@<TRIPOS>ATOM
      1 C          56.7769   92.8023   -3.8661 C.ar    1  UNL1        0.0533
      2 C          56.3729   92.2595   -2.5274 C.ar    1  UNL1        0.0148
      3 C          57.3252   92.3308   -1.3707 C.ar    1  UNL1        0.0029
      4 C          58.6816   92.9449   -1.5526 C.ar    1  UNL1        0.0208
      5 C          59.0856   93.4877   -2.8913 C.ar    1  UNL1        0.1052
      6 C          58.1333   93.4164   -4.0480 C.ar    1  UNL1        0.0536
      7 C          58.8056   94.0296   -5.2405 C.ar    1  UNL1        0.1247
      8 N          60.1735   94.4799   -4.8207 N.ar    1  UNL1       -0.1467
      9 N          60.3466   94.1450   -3.3688 N.ar    1  UNL1       -0.1274
     10 C          56.0817   91.7729   -6.1480 C.2     1  UNL1        0.2275
     11 O          57.2912   90.8860   -6.1163 O.2     1  UNL1       -0.2747
     12 N          55.8246   92.7310   -5.0228 N.am    1  UNL1       -0.2838
     13 H          55.0309   93.3131   -5.0436 H       1  UNL1        0.1549
     14 C          55.1295   91.7016   -7.3048 C.3     1  UNL1        0.1022
     15 N          54.5756   89.2367   -6.6986 N.3     1  UNL1       -0.3207
     16 C          54.3534   90.4438   -7.5608 C.3     1  UNL1        0.0748
     17 H          53.9691   88.4788   -7.0119 H       1  UNL1        0.1189
     18 H          54.3587   89.4669   -5.7289 H       1  UNL1        0.1189
     19 S          61.5663   94.4192   -2.5400 S.O2    1  UNL1        0.1006
     20 O          60.8660   95.5767   -1.8922 O.2     1  UNL1       -0.1463
     21 O          62.2667   93.2616   -3.1878 O.2     1  UNL1       -0.1463
     22 C          62.7861   94.6934   -1.7112 C.ar    1  UNL1        0.1291
     23 C          63.8329   95.6453   -2.2093 C.ar    1  UNL1        0.0204
     24 C          65.0526   95.9195   -1.3805 C.ar    1  UNL1        0.0014
     25 C          65.2257   95.2418   -0.0536 C.ar    1  UNL1        0.0001
     26 C          64.1790   94.2897    0.4445 C.ar    1  UNL1        0.0013
     27 C          64.3521   93.6120    1.7714 C.ar    1  UNL1        0.0000
     28 C          63.3053   92.6600    2.2695 C.ar    1  UNL1        0.0000
     29 C          62.0856   92.3858    1.4407 C.ar    1  UNL1        0.0000
     30 C          61.9125   93.0636    0.1138 C.ar    1  UNL1        0.0013
     31 C          62.9592   94.0155   -0.3843 C.ar    1  UNL1        0.0191
@<TRIPOS>BOND
     1    15    16    1
     2    16    14    1
     3    14    10    1
     4    10    11    2
     5    10    12   am
     6    12     1    1
     7     1     2   ar
     8     2     3   ar
     9     3     4   ar
    10     4     5   ar
    11     5     6   ar
    12     6     7   ar
    13     7     8   ar
    14     8     9   ar
    15     9    19    1
    16    19    20    2
    17    19    21    2
    18    19    22    1
    19    22    23   ar
    20    23    24   ar
    21    24    25   ar
    22    25    26   ar
    23    26    27   ar
    24    27    28   ar
    25    28    29   ar
    26    29    30   ar
    27    30    31   ar
    28     6     1   ar
    29    31    22   ar
    30     9     5   ar
    31    31    26   ar
    32    15    17    1
    33    15    18    1
    34    12    13    1
