@<TRIPOS>MOLECULE
*****
 36 40 0 0 0
SMALL
GASTEIGER

@<TRIPOS>ATOM
      1 C          63.9273   89.2435   15.5286 C.ar    1  UNL1        0.0842
      2 N          63.4321   89.8083   16.8270 N.ar    1  UNL1       -0.2437
      3 C          62.8512   88.8979   17.8679 C.ar    1  UNL1        0.0988
      4 C          62.7653   87.4226   17.6104 C.ar    1  UNL1        0.0207
      5 C          63.2605   86.8578   16.3121 C.ar    1  UNL1        0.0043
      6 C          63.1747   85.3826   16.0546 C.ar    1  UNL1        0.0203
      7 C          63.6698   84.8178   14.7563 C.ar    1  UNL1        0.1252
      8 C          64.2508   85.7282   13.7153 C.ar    1  UNL1        0.0202
      9 C          64.3367   87.2035   13.9727 C.ar    1  UNL1        0.0029
     10 C          63.8415   87.7683   15.2712 C.ar    1  UNL1        0.0179
     11 C          63.7198   90.4832   13.2548 C.ar    1  UNL1        0.1401
     12 C          64.3008   91.3936   12.2138 C.ar    1  UNL1        0.0378
     13 C          65.6702   91.9748   12.4057 C.ar    1  UNL1        0.0137
     14 C          66.4587   91.6456   13.6385 C.ar    1  UNL1        0.0579
     15 CL         67.8281   92.2268   13.8304 Cl      1  UNL1       -0.0822
     16 C          65.8777   90.7352   14.6795 C.ar    1  UNL1        0.0159
     17 C          64.5083   90.1540   14.4876 C.ar    1  UNL1        0.0524
     18 C          66.2512   92.8852   11.3647 C.ar    1  UNL1        0.0031
     19 C          65.8860   94.3400   11.3526 C.ar    1  UNL1        0.0002
     20 C          66.4669   95.2505   10.3116 C.ar    1  UNL1        0.0023
     21 C          67.4131   94.7061    9.2828 C.ar    1  UNL1        0.0296
     22 C          67.7783   93.2512    9.2949 C.ar    1  UNL1        0.1401
     23 F          68.7244   92.7068    8.2661 F       1  UNL1       -0.2042
     24 C          67.1973   92.3408   10.3359 C.ar    1  UNL1        0.0297
     25 C          61.7485   89.8374   11.6904 C.3     1  UNL1        0.2525
     26 O          62.3503   89.9019   13.0629 O.3     1  UNL1       -0.4714
     27 S          63.5840   83.3425   14.4988 S.O2    1  UNL1        0.0751
     28 O          65.0729   83.2861   14.3257 O.2     1  UNL1       -0.1499
     29 O          62.0951   83.3989   14.6719 O.2     1  UNL1       -0.1499
     30 N          63.4982   81.8673   14.2414 N.pl3   1  UNL1       -0.1925
     31 H          63.5713   81.2319   14.9898 H       1  UNL1        0.1758
     32 C          63.3010   81.3601   12.8435 C.ar    1  UNL1        0.1977
     33 N          62.7805   80.0060   12.4620 N.ar    1  UNL1       -0.1997
     34 C          62.7475   79.9271   10.9645 C.ar    1  UNL1        0.2082
     35 N          63.2477   81.2324   10.4203 N.ar    1  UNL1       -0.1840
     36 S          63.5897   82.1181   11.5816 S.2     1  UNL1        0.0508
@<TRIPOS>BOND
     1    25    26    1
     2    26    11    1
     3    11    12   ar
     4    12    13   ar
     5    13    18    1
     6    18    19   ar
     7    19    20   ar
     8    20    21   ar
     9    21    22   ar
    10    22    23    1
    11    22    24   ar
    12    13    14   ar
    13    14    15    1
    14    14    16   ar
    15    16    17   ar
    16    17     1    1
    17     1     2   ar
    18     2     3   ar
    19     3     4   ar
    20     4     5   ar
    21     5     6   ar
    22     6     7   ar
    23     7    27    1
    24    27    28    2
    25    27    29    2
    26    27    30    1
    27    30    32    1
    28    32    33   ar
    29    33    34   ar
    30    34    35   ar
    31    35    36   ar
    32     7     8   ar
    33     8     9   ar
    34     9    10   ar
    35    17    11   ar
    36    10     1   ar
    37    24    18   ar
    38    10     5   ar
    39    36    32   ar
    40    30    31    1
@<TRIPOS>MOLECULE
*****
 36 40 0 0 0
SMALL
GASTEIGER

@<TRIPOS>ATOM
      1 C          64.0899   90.0932   15.2058 C.ar    1  UNL1        0.0842
      2 N          63.5710   90.8220   16.4097 N.ar    1  UNL1       -0.2437
      3 C          62.9811   90.0537   17.5550 C.ar    1  UNL1        0.0988
      4 C          62.9103   88.5565   17.4963 C.ar    1  UNL1        0.0207
      5 C          63.4292   87.8277   16.2924 C.ar    1  UNL1        0.0043
      6 C          63.3584   86.3305   16.2338 C.ar    1  UNL1        0.0203
      7 C          63.8773   85.6017   15.0299 C.ar    1  UNL1        0.1252
      8 C          64.4671   86.3700   13.8845 C.ar    1  UNL1        0.0202
      9 C          64.5380   87.8672   13.9431 C.ar    1  UNL1        0.0029
     10 C          64.0190   88.5960   15.1471 C.ar    1  UNL1        0.0179
     11 C          65.9968   91.5602   14.2251 C.ar    1  UNL1        0.1401
     12 C          66.5867   92.3285   13.0799 C.ar    1  UNL1        0.0378
     13 C          65.8595   92.3982   11.7697 C.ar    1  UNL1        0.0137
     14 C          64.5424   91.6995   11.6050 C.ar    1  UNL1        0.0579
     15 CL         63.8151   91.7692   10.2950 Cl      1  UNL1       -0.0822
     16 C          63.9525   90.9312   12.7504 C.ar    1  UNL1        0.0159
     17 C          64.6797   90.8615   14.0604 C.ar    1  UNL1        0.0524
     18 C          66.4493   93.1665   10.6245 C.ar    1  UNL1        0.0031
     19 C          67.5304   92.5512    9.7863 C.ar    1  UNL1        0.0002
     20 C          68.1203   93.3195    8.6409 C.ar    1  UNL1        0.0023
     21 C          67.6291   94.7031    8.3338 C.ar    1  UNL1        0.0296
     22 C          66.5479   95.3184    9.1721 C.ar    1  UNL1        0.1401
     23 F          66.0567   96.7020    8.8650 F       1  UNL1       -0.2042
     24 C          65.9581   94.5501   10.3173 C.ar    1  UNL1        0.0297
     25 C          67.5529   92.6528   15.9957 C.3     1  UNL1        0.2525
     26 O          66.7241   91.4905   15.5353 O.3     1  UNL1       -0.4714
     27 S          63.8064   84.1045   14.9712 S.O2    1  UNL1        0.0751
     28 O          65.2178   84.0575   14.4654 O.2     1  UNL1       -0.1499
     29 O          62.3951   84.1515   15.4771 O.2     1  UNL1       -0.1499
     30 N          63.7356   82.6073   14.9126 N.pl3   1  UNL1       -0.1925
     31 H          63.9073   82.0743   15.7223 H       1  UNL1        0.1758
     32 C          63.4030   81.9222   13.6202 C.ar    1  UNL1        0.1977
     33 N          63.5873   82.4946   12.2461 N.ar    1  UNL1       -0.1997
     34 C          63.1259   81.4706   11.2517 C.ar    1  UNL1        0.2082
     35 N          62.6564   80.2654   12.0114 N.ar    1  UNL1       -0.1840
     36 S          62.8277   80.5445   13.4752 S.2     1  UNL1        0.0508
@<TRIPOS>BOND
     1    25    26    1
     2    26    11    1
     3    11    12   ar
     4    12    13   ar
     5    13    18    1
     6    18    19   ar
     7    19    20   ar
     8    20    21   ar
     9    21    22   ar
    10    22    23    1
    11    22    24   ar
    12    13    14   ar
    13    14    15    1
    14    14    16   ar
    15    16    17   ar
    16    17     1    1
    17     1     2   ar
    18     2     3   ar
    19     3     4   ar
    20     4     5   ar
    21     5     6   ar
    22     6     7   ar
    23     7    27    1
    24    27    28    2
    25    27    29    2
    26    27    30    1
    27    30    32    1
    28    32    33   ar
    29    33    34   ar
    30    34    35   ar
    31    35    36   ar
    32     7     8   ar
    33     8     9   ar
    34     9    10   ar
    35    17    11   ar
    36    10     1   ar
    37    24    18   ar
    38    10     5   ar
    39    36    32   ar
    40    30    31    1
@<TRIPOS>MOLECULE
*****
 36 40 0 0 0
SMALL
GASTEIGER

@<TRIPOS>ATOM
      1 C          62.3568   87.9347   11.0234 C.ar    1  UNL1        0.0842
      2 N          61.6223   88.4347    9.8149 N.ar    1  UNL1       -0.2437
      3 C          61.5672   89.9056    9.5261 C.ar    1  UNL1        0.0988
      4 C          62.2466   90.8765   10.4458 C.ar    1  UNL1        0.0207
      5 C          62.9811   90.3765   11.6543 C.ar    1  UNL1        0.0043
      6 C          63.6605   91.3474   12.5739 C.ar    1  UNL1        0.0203
      7 C          64.3950   90.8474   13.7824 C.ar    1  UNL1        0.1252
      8 C          64.4501   89.3764   14.0713 C.ar    1  UNL1        0.0202
      9 C          63.7707   88.4056   13.1516 C.ar    1  UNL1        0.0029
     10 C          63.0362   88.9056   11.9431 C.ar    1  UNL1        0.0179
     11 C          62.5970   85.4856   10.1903 C.ar    1  UNL1        0.1401
     12 C          62.6522   84.0147   10.4791 C.ar    1  UNL1        0.0378
     13 C          62.5222   83.5220   11.8900 C.ar    1  UNL1        0.0137
     14 C          62.3370   84.5002   13.0119 C.ar    1  UNL1        0.0579
     15 CL         62.2070   84.0075   14.4227 Cl      1  UNL1       -0.0822
     16 C          62.2819   85.9711   12.7231 C.ar    1  UNL1        0.0159
     17 C          62.4119   86.4638   11.3123 C.ar    1  UNL1        0.0524
     18 C          62.5773   82.0511   12.1788 C.ar    1  UNL1        0.0031
     19 C          62.4950   81.5611   13.5940 C.ar    1  UNL1        0.0002
     20 C          62.5501   80.0902   13.8829 C.ar    1  UNL1        0.0023
     21 C          62.6876   79.1093   12.7564 C.ar    1  UNL1        0.0296
     22 C          62.7699   79.5993   11.3411 C.ar    1  UNL1        0.1401
     23 F          62.9073   78.6185   10.2146 F       1  UNL1       -0.2042
     24 C          62.7147   81.0702   11.0523 C.ar    1  UNL1        0.0297
     25 C          62.7795   84.9987    7.6448 C.3     1  UNL1        0.2525
     26 O          62.7271   85.9783    8.7795 O.3     1  UNL1       -0.4714
     27 S          65.0744   91.8183   14.7021 S.O2    1  UNL1        0.0751
     28 O          65.4002   92.6985   13.5321 O.2     1  UNL1       -0.1499
     29 O          64.7485   90.9380   15.8721 O.2     1  UNL1       -0.1499
     30 N          65.7538   92.7892   15.6218 N.pl3   1  UNL1       -0.1925
     31 H          65.2307   93.2707   16.3028 H       1  UNL1        0.1758
     32 C          67.2302   93.0264   15.5038 C.ar    1  UNL1        0.1977
     33 N          67.9990   94.1390   16.1528 N.ar    1  UNL1       -0.1997
     34 C          69.4410   93.9929   15.7662 C.ar    1  UNL1        0.2082
     35 N          69.5634   92.7901   14.8783 N.ar    1  UNL1       -0.1840
     36 S          68.1970   92.1928   14.7162 S.2     1  UNL1        0.0508
@<TRIPOS>BOND
     1    25    26    1
     2    26    11    1
     3    11    12   ar
     4    12    13   ar
     5    13    18    1
     6    18    19   ar
     7    19    20   ar
     8    20    21   ar
     9    21    22   ar
    10    22    23    1
    11    22    24   ar
    12    13    14   ar
    13    14    15    1
    14    14    16   ar
    15    16    17   ar
    16    17     1    1
    17     1     2   ar
    18     2     3   ar
    19     3     4   ar
    20     4     5   ar
    21     5     6   ar
    22     6     7   ar
    23     7    27    1
    24    27    28    2
    25    27    29    2
    26    27    30    1
    27    30    32    1
    28    32    33   ar
    29    33    34   ar
    30    34    35   ar
    31    35    36   ar
    32     7     8   ar
    33     8     9   ar
    34     9    10   ar
    35    17    11   ar
    36    10     1   ar
    37    24    18   ar
    38    10     5   ar
    39    36    32   ar
    40    30    31    1
