@<TRIPOS>MOLECULE
*****
 31 35 0 0 0
SMALL
GASTEIGER

@<TRIPOS>ATOM
      1 O          61.7822   90.2339    9.4774 O.2     1  UNL1       -0.2739
      2 C          62.0247   89.4787   10.7504 C.2     1  UNL1        0.2419
      3 N          63.0671   89.9551   11.7182 N.am    1  UNL1       -0.2581
      4 C          63.4194   89.3070   13.0243 C.3     1  UNL1        0.1029
      5 C          64.5101   90.1145   13.6631 C.3     1  UNL1        0.0495
      6 C          64.8319   91.2617   12.7518 C.ar    1  UNL1       -0.0067
      7 C          65.8219   92.3833   12.8612 C.ar    1  UNL1       -0.0012
      8 C          65.9200   93.4064   11.7687 C.ar    1  UNL1       -0.0002
      9 C          65.0281   93.3078   10.5667 C.ar    1  UNL1        0.0013
     10 C          64.0382   92.1862   10.4573 C.ar    1  UNL1        0.0146
     11 C          63.9401   91.1631   11.5498 C.ar    1  UNL1        0.0499
     12 C          66.7138   92.4818   14.0633 C.ar    1  UNL1        0.0189
     13 C          68.1805   92.1953   13.9344 C.ar    1  UNL1        0.0031
     14 C          69.0724   92.2938   15.1365 C.ar    1  UNL1        0.0207
     15 C          68.4975   92.6789   16.4674 C.ar    1  UNL1        0.0989
     16 N          67.0307   92.9655   16.5962 N.ar    1  UNL1       -0.2423
     17 C          66.1389   92.8669   15.3942 C.ar    1  UNL1        0.0988
     18 C          61.2248   88.2470   11.0557 C.3     1  UNL1        0.2068
     19 C          61.7711   86.8933   10.7108 C.2     1  UNL1        0.3580
     20 N          61.9589   85.8641   11.7856 N.2     1  UNL1       -0.0039
     21 C          62.5052   84.5104   11.4407 C.2     1  UNL1        0.3159
     22 C          62.8638   84.1859   10.0208 C.3     1  UNL1        0.2333
     23 C          62.6760   85.2151    8.9459 C.2     1  UNL1        0.3644
     24 O          63.0346   84.8906    7.5260 O.2     1  UNL1       -0.2422
     25 N          62.1297   86.5688    9.2909 N.am    1  UNL1        0.0289
     26 N          62.6929   83.4812   12.5156 N.pl3   1  UNL1       -0.1888
     27 C          62.8414   83.9088   13.9458 C.3     1  UNL1        0.2343
     28 C          63.0291   82.8796   15.0206 C.3     1  UNL1        0.1929
     29 O          63.0684   81.4228   14.6655 O.3     1  UNL1       -0.3449
     30 C          62.9199   80.9951   13.2355 C.3     1  UNL1        0.1929
     31 C          62.7322   82.0244   12.1605 C.3     1  UNL1        0.2343
@<TRIPOS>BOND
     1     1     2    2
     2     2    18    1
     3    18    19    1
     4    19    20    1
     5    20    21    2
     6    21    26    1
     7    26    27    1
     8    27    28    1
     9    28    29    1
    10    29    30    1
    11    30    31    1
    12    21    22    1
    13    22    23    1
    14    23    24    2
    15    23    25    1
    16     2     3   am
    17     3     4    1
    18     4     5    1
    19     5     6    1
    20     6     7   ar
    21     7    12    1
    22    12    13   ar
    23    13    14   ar
    24    14    15   ar
    25    15    16   ar
    26    16    17   ar
    27     7     8   ar
    28     8     9   ar
    29     9    10   ar
    30    10    11   ar
    31    25    19    2
    32    11     3    1
    33    31    26    1
    34    11     6   ar
    35    17    12   ar
@<TRIPOS>MOLECULE
*****
 31 35 0 0 0
SMALL
GASTEIGER

@<TRIPOS>ATOM
      1 O          63.9905   88.3908   15.2442 O.2     1  UNL1       -0.2739
      2 C          63.5128   89.2643   14.1222 C.2     1  UNL1        0.2419
      3 N          63.0901   88.6496   12.8209 N.am    1  UNL1       -0.2581
      4 C          62.5928   89.3914   11.6157 C.3     1  UNL1        0.1029
      5 C          62.2859   88.3854   10.5462 C.3     1  UNL1        0.0495
      6 C          62.5936   87.0219   11.0905 C.ar    1  UNL1       -0.0067
      7 C          62.4853   85.6527   10.4875 C.ar    1  UNL1       -0.0012
      8 C          62.8741   84.4467   11.2903 C.ar    1  UNL1       -0.0002
      9 C          63.3711   84.6100   12.6961 C.ar    1  UNL1        0.0013
     10 C          63.4794   85.9792   13.2990 C.ar    1  UNL1        0.0146
     11 C          63.0906   87.1851   12.4962 C.ar    1  UNL1        0.0499
     12 C          61.9883   85.4894    9.0816 C.ar    1  UNL1        0.0189
     13 C          62.8849   84.9015    8.0326 C.ar    1  UNL1        0.0031
     14 C          62.3879   84.7383    6.6268 C.ar    1  UNL1        0.0207
     15 C          60.9942   85.1630    6.2700 C.ar    1  UNL1        0.0989
     16 N          60.0976   85.7509    7.3190 N.ar    1  UNL1       -0.2423
     17 C          60.5946   85.9141    8.7248 C.ar    1  UNL1        0.0988
     18 C          63.4577   90.7525   14.3017 C.3     1  UNL1        0.2068
     19 C          64.7007   91.5748   14.1323 C.2     1  UNL1        0.3580
     20 N          65.2186   91.8768   12.7573 N.2     1  UNL1       -0.0039
     21 C          66.4616   92.6992   12.5879 C.2     1  UNL1        0.3159
     22 C          67.1866   93.2197   13.7935 C.3     1  UNL1        0.2333
     23 C          66.6687   92.9177   15.1684 C.2     1  UNL1        0.3644
     24 O          67.3937   93.4381   16.3741 O.2     1  UNL1       -0.2422
     25 N          65.4257   92.0953   15.3378 N.am    1  UNL1        0.0289
     26 N          66.9794   93.0012   11.2129 N.pl3   1  UNL1       -0.1888
     27 C          67.9442   92.0619   10.5517 C.3     1  UNL1        0.2343
     28 C          68.4620   92.3640    9.1768 C.3     1  UNL1        0.1929
     29 O          68.0151   93.6052    8.4629 O.3     1  UNL1       -0.3449
     30 C          67.0504   94.5445    9.1240 C.3     1  UNL1        0.1929
     31 C          66.5326   94.2424   10.4990 C.3     1  UNL1        0.2343
@<TRIPOS>BOND
     1     1     2    2
     2     2    18    1
     3    18    19    1
     4    19    20    1
     5    20    21    2
     6    21    26    1
     7    26    27    1
     8    27    28    1
     9    28    29    1
    10    29    30    1
    11    30    31    1
    12    21    22    1
    13    22    23    1
    14    23    24    2
    15    23    25    1
    16     2     3   am
    17     3     4    1
    18     4     5    1
    19     5     6    1
    20     6     7   ar
    21     7    12    1
    22    12    13   ar
    23    13    14   ar
    24    14    15   ar
    25    15    16   ar
    26    16    17   ar
    27     7     8   ar
    28     8     9   ar
    29     9    10   ar
    30    10    11   ar
    31    25    19    2
    32    11     3    1
    33    31    26    1
    34    11     6   ar
    35    17    12   ar
@<TRIPOS>MOLECULE
*****
 31 35 0 0 0
SMALL
GASTEIGER

@<TRIPOS>ATOM
      1 O          63.3809   90.4886   12.4317 O.2     1  UNL1       -0.2739
      2 C          63.9228   89.6923   13.5815 C.2     1  UNL1        0.2419
      3 N          63.7924   88.1979   13.5864 N.am    1  UNL1       -0.2581
      4 C          64.2829   87.2737   14.6612 C.3     1  UNL1        0.1029
      5 C          63.9424   85.8700   14.2565 C.3     1  UNL1        0.0495
      6 C          63.2414   85.9269   12.9315 C.ar    1  UNL1       -0.0067
      7 C          62.6755   84.8544   12.0486 C.ar    1  UNL1       -0.0012
      8 C          62.0169   85.2206   10.7516 C.ar    1  UNL1       -0.0002
      9 C          61.9243   86.6593   10.3376 C.ar    1  UNL1        0.0013
     10 C          62.4902   87.7318   11.2205 C.ar    1  UNL1        0.0146
     11 C          63.1487   87.3656   12.5174 C.ar    1  UNL1        0.0499
     12 C          62.7681   83.4156   12.4627 C.ar    1  UNL1        0.0189
     13 C          63.0356   82.3554   11.4359 C.ar    1  UNL1        0.0031
     14 C          63.1283   80.9166   11.8501 C.ar    1  UNL1        0.0207
     15 C          62.9535   80.5382   13.2910 C.ar    1  UNL1        0.0989
     16 N          62.6860   81.5985   14.3178 N.ar    1  UNL1       -0.2423
     17 C          62.5933   83.0372   13.9036 C.ar    1  UNL1        0.0988
     18 C          64.5950   90.3903   14.7265 C.3     1  UNL1        0.2068
     19 C          65.4919   91.5642   14.4668 C.2     1  UNL1        0.3580
     20 N          65.5470   92.1779   13.0993 N.2     1  UNL1       -0.0039
     21 C          66.4440   93.3519   12.8396 C.2     1  UNL1        0.3159
     22 C          67.2858   93.9121   13.9475 C.3     1  UNL1        0.2333
     23 C          67.2307   93.2983   15.3151 C.2     1  UNL1        0.3644
     24 O          68.0725   93.8585   16.4231 O.2     1  UNL1       -0.2422
     25 N          66.3337   92.1244   15.5747 N.am    1  UNL1        0.0289
     26 N          66.4990   93.9656   11.4720 N.pl3   1  UNL1       -0.1888
     27 C          67.1166   93.2079   10.3342 C.3     1  UNL1        0.2343
     28 C          67.1716   93.8217    8.9666 C.3     1  UNL1        0.1929
     29 O          66.6091   95.1931    8.7368 O.3     1  UNL1       -0.3449
     30 C          65.9916   95.9508    9.8746 C.3     1  UNL1        0.1929
     31 C          65.9365   95.3370   11.2422 C.3     1  UNL1        0.2343
@<TRIPOS>BOND
     1     1     2    2
     2     2    18    1
     3    18    19    1
     4    19    20    1
     5    20    21    2
     6    21    26    1
     7    26    27    1
     8    27    28    1
     9    28    29    1
    10    29    30    1
    11    30    31    1
    12    21    22    1
    13    22    23    1
    14    23    24    2
    15    23    25    1
    16     2     3   am
    17     3     4    1
    18     4     5    1
    19     5     6    1
    20     6     7   ar
    21     7    12    1
    22    12    13   ar
    23    13    14   ar
    24    14    15   ar
    25    15    16   ar
    26    16    17   ar
    27     7     8   ar
    28     8     9   ar
    29     9    10   ar
    30    10    11   ar
    31    25    19    2
    32    11     3    1
    33    31    26    1
    34    11     6   ar
    35    17    12   ar
@<TRIPOS>MOLECULE
*****
 31 35 0 0 0
SMALL
GASTEIGER

@<TRIPOS>ATOM
      1 O          63.7993   89.4194   16.1290 O.2     1  UNL1       -0.2739
      2 C          63.6027   89.3969   14.6421 C.2     1  UNL1        0.2419
      3 N          63.5567   88.0878   13.9113 N.am    1  UNL1       -0.2581
      4 C          63.3674   87.9089   12.4341 C.3     1  UNL1        0.1029
      5 C          63.3856   86.4383   12.1392 C.3     1  UNL1        0.0495
      6 C          63.5862   85.7084   13.4343 C.ar    1  UNL1       -0.0067
      7 C          63.6863   84.2471   13.7577 C.ar    1  UNL1       -0.0012
      8 C          63.8920   83.8052   15.1763 C.ar    1  UNL1       -0.0002
      9 C          63.9977   84.8247   16.2714 C.ar    1  UNL1        0.0013
     10 C          63.8977   86.2860   15.9480 C.ar    1  UNL1        0.0146
     11 C          63.6919   86.7278   14.5294 C.ar    1  UNL1        0.0499
     12 C          63.5805   83.2276   12.6624 C.ar    1  UNL1        0.0189
     13 C          62.6351   82.0715   12.8026 C.ar    1  UNL1        0.0031
     14 C          62.5294   81.0520   11.7073 C.ar    1  UNL1        0.0207
     15 C          63.3692   81.1886   10.4719 C.ar    1  UNL1        0.0989
     16 N          64.3146   82.3448   10.3318 N.ar    1  UNL1       -0.2423
     17 C          64.4203   83.3642   11.4271 C.ar    1  UNL1        0.0988
     18 C          63.4520   90.6837   13.8861 C.3     1  UNL1        0.2068
     19 C          64.5707   91.6828   13.8756 C.2     1  UNL1        0.3580
     20 N          64.9643   92.3546   12.5935 N.2     1  UNL1       -0.0039
     21 C          66.0831   93.3537   12.5830 C.2     1  UNL1        0.3159
     22 C          66.8082   93.6812   13.8546 C.3     1  UNL1        0.2333
     23 C          66.4145   93.0094   15.1366 C.2     1  UNL1        0.3644
     24 O          67.1396   93.3368   16.4083 O.2     1  UNL1       -0.2422
     25 N          65.2958   92.0103   15.1472 N.am    1  UNL1        0.0289
     26 N          66.4766   94.0254   11.3008 N.pl3   1  UNL1       -0.1888
     27 C          67.1940   93.2489   10.2367 C.3     1  UNL1        0.2343
     28 C          67.5876   93.9207    8.9546 C.3     1  UNL1        0.1929
     29 O          67.2638   95.3690    8.7365 O.3     1  UNL1       -0.3449
     30 C          66.5464   96.1456    9.8006 C.3     1  UNL1        0.1929
     31 C          66.1529   95.4738   11.0828 C.3     1  UNL1        0.2343
@<TRIPOS>BOND
     1     1     2    2
     2     2    18    1
     3    18    19    1
     4    19    20    1
     5    20    21    2
     6    21    26    1
     7    26    27    1
     8    27    28    1
     9    28    29    1
    10    29    30    1
    11    30    31    1
    12    21    22    1
    13    22    23    1
    14    23    24    2
    15    23    25    1
    16     2     3   am
    17     3     4    1
    18     4     5    1
    19     5     6    1
    20     6     7   ar
    21     7    12    1
    22    12    13   ar
    23    13    14   ar
    24    14    15   ar
    25    15    16   ar
    26    16    17   ar
    27     7     8   ar
    28     8     9   ar
    29     9    10   ar
    30    10    11   ar
    31    25    19    2
    32    11     3    1
    33    31    26    1
    34    11     6   ar
    35    17    12   ar
@<TRIPOS>MOLECULE
*****
 31 35 0 0 0
SMALL
GASTEIGER

@<TRIPOS>ATOM
      1 O          62.3401   89.6589    9.6036 O.2     1  UNL1       -0.2739
      2 C          62.4612   89.3839   11.0731 C.2     1  UNL1        0.2419
      3 N          62.6417   87.9769   11.5606 N.am    1  UNL1       -0.2581
      4 C          62.7766   87.5502   12.9923 C.3     1  UNL1        0.1029
      5 C          62.9374   86.0591   13.0185 C.3     1  UNL1        0.0495
      6 C          62.9019   85.5642   11.6028 C.ar    1  UNL1       -0.0067
      7 C          63.0123   84.1874   11.0179 C.ar    1  UNL1       -0.0012
      8 C          62.9401   83.9958    9.5319 C.ar    1  UNL1       -0.0002
      9 C          62.7573   85.1811    8.6310 C.ar    1  UNL1        0.0013
     10 C          62.6469   86.5579    9.2159 C.ar    1  UNL1        0.0146
     11 C          62.7192   86.7495   10.7019 C.ar    1  UNL1        0.0499
     12 C          63.1951   83.0021   11.9189 C.ar    1  UNL1        0.0189
     13 C          62.6123   81.6735   11.5380 C.ar    1  UNL1        0.0031
     14 C          62.7950   80.4883   12.4391 C.ar    1  UNL1        0.0207
     15 C          63.5605   80.6317   13.7210 C.ar    1  UNL1        0.0989
     16 N          64.1433   81.9604   14.1019 N.ar    1  UNL1       -0.2423
     17 C          63.9606   83.1455   13.2009 C.ar    1  UNL1        0.0988
     18 C          62.4016   90.5161   12.0553 C.3     1  UNL1        0.2068
     19 C          63.6603   91.2238   12.4613 C.2     1  UNL1        0.3580
     20 N          64.5047   91.9056   11.4260 N.2     1  UNL1       -0.0039
     21 C          65.7634   92.6133   11.8320 C.2     1  UNL1        0.3159
     22 C          66.1778   92.6392   13.2734 C.3     1  UNL1        0.2333
     23 C          65.3333   91.9573   14.3087 C.2     1  UNL1        0.3644
     24 O          65.7476   91.9831   15.7502 O.2     1  UNL1       -0.2422
     25 N          64.0746   91.2496   13.9027 N.am    1  UNL1        0.0289
     26 N          66.6078   93.2951   10.7965 N.pl3   1  UNL1       -0.1888
     27 C          66.4463   94.7653   10.5463 C.3     1  UNL1        0.2343
     28 C          67.2907   95.4470    9.5109 C.3     1  UNL1        0.1929
     29 O          68.2966   94.6587    8.7256 O.3     1  UNL1       -0.3449
     30 C          68.4582   93.1885    8.9758 C.3     1  UNL1        0.1929
     31 C          67.6137   92.5068   10.0113 C.3     1  UNL1        0.2343
@<TRIPOS>BOND
     1     1     2    2
     2     2    18    1
     3    18    19    1
     4    19    20    1
     5    20    21    2
     6    21    26    1
     7    26    27    1
     8    27    28    1
     9    28    29    1
    10    29    30    1
    11    30    31    1
    12    21    22    1
    13    22    23    1
    14    23    24    2
    15    23    25    1
    16     2     3   am
    17     3     4    1
    18     4     5    1
    19     5     6    1
    20     6     7   ar
    21     7    12    1
    22    12    13   ar
    23    13    14   ar
    24    14    15   ar
    25    15    16   ar
    26    16    17   ar
    27     7     8   ar
    28     8     9   ar
    29     9    10   ar
    30    10    11   ar
    31    25    19    2
    32    11     3    1
    33    31    26    1
    34    11     6   ar
    35    17    12   ar
@<TRIPOS>MOLECULE
*****
 31 35 0 0 0
SMALL
GASTEIGER

@<TRIPOS>ATOM
      1 O          65.0271   82.8391   12.8515 O.2     1  UNL1       -0.2739
      2 C          64.0752   83.8459   13.4261 C.2     1  UNL1        0.2419
      3 N          63.2048   84.6602   12.5154 N.am    1  UNL1       -0.2581
      4 C          62.2104   85.6990   12.9424 C.3     1  UNL1        0.1029
      5 C          61.5670   86.2594   11.7087 C.3     1  UNL1        0.0495
      6 C          62.1637   85.5669   10.5193 C.ar    1  UNL1       -0.0067
      7 C          61.9162   85.7088    9.0467 C.ar    1  UNL1       -0.0012
      8 C          62.6807   84.8622    8.0727 C.ar    1  UNL1       -0.0002
      9 C          63.6929   83.8739    8.5713 C.ar    1  UNL1        0.0013
     10 C          63.9405   83.7321   10.0439 C.ar    1  UNL1        0.0146
     11 C          63.1759   84.5786   11.0180 C.ar    1  UNL1        0.0499
     12 C          60.9039   86.6972    8.5481 C.ar    1  UNL1        0.0189
     13 C          61.0410   88.1502    8.8942 C.ar    1  UNL1        0.0031
     14 C          60.0287   89.1387    8.3956 C.ar    1  UNL1        0.0207
     15 C          58.8795   88.6739    7.5510 C.ar    1  UNL1        0.0989
     16 N          58.7426   87.2208    7.2050 N.ar    1  UNL1       -0.2423
     17 C          59.7547   86.2324    7.7035 C.ar    1  UNL1        0.0988
     18 C          63.9936   84.0384   14.9115 C.3     1  UNL1        0.2068
     19 C          63.7605   85.4073   15.4787 C.2     1  UNL1        0.3580
     20 N          64.0752   86.6228   14.6581 N.2     1  UNL1       -0.0039
     21 C          63.8421   87.9917   15.2253 C.2     1  UNL1        0.3159
     22 C          63.2943   88.1452   16.6132 C.3     1  UNL1        0.2333
     23 C          62.9796   86.9297   17.4339 C.2     1  UNL1        0.3644
     24 O          62.4318   87.0830   18.8218 O.2     1  UNL1       -0.2422
     25 N          63.2127   85.5608   16.8666 N.am    1  UNL1        0.0289
     26 N          64.1568   89.2071   14.4045 N.pl3   1  UNL1       -0.1888
     27 C          65.2088   90.1719   14.8657 C.3     1  UNL1        0.2343
     28 C          65.5234   91.3873   14.0449 C.3     1  UNL1        0.1929
     29 O          64.7862   91.6381   12.7630 O.3     1  UNL1       -0.3449
     30 C          63.7342   90.6734   12.3017 C.3     1  UNL1        0.1929
     31 C          63.4195   89.4579   13.1226 C.3     1  UNL1        0.2343
@<TRIPOS>BOND
     1     1     2    2
     2     2    18    1
     3    18    19    1
     4    19    20    1
     5    20    21    2
     6    21    26    1
     7    26    27    1
     8    27    28    1
     9    28    29    1
    10    29    30    1
    11    30    31    1
    12    21    22    1
    13    22    23    1
    14    23    24    2
    15    23    25    1
    16     2     3   am
    17     3     4    1
    18     4     5    1
    19     5     6    1
    20     6     7   ar
    21     7    12    1
    22    12    13   ar
    23    13    14   ar
    24    14    15   ar
    25    15    16   ar
    26    16    17   ar
    27     7     8   ar
    28     8     9   ar
    29     9    10   ar
    30    10    11   ar
    31    25    19    2
    32    11     3    1
    33    31    26    1
    34    11     6   ar
    35    17    12   ar
@<TRIPOS>MOLECULE
*****
 31 35 0 0 0
SMALL
GASTEIGER

@<TRIPOS>ATOM
      1 O          62.0958   85.6662   17.5722 O.2     1  UNL1       -0.2739
      2 C          63.0678   85.3610   16.4713 C.2     1  UNL1        0.2419
      3 N          63.7297   86.4803   15.7236 N.am    1  UNL1       -0.2581
      4 C          64.7176   86.3302   14.6048 C.3     1  UNL1        0.1029
      5 C          65.1185   87.7032   14.1531 C.3     1  UNL1        0.0495
      6 C          64.3783   88.7019   14.9928 C.ar    1  UNL1       -0.0067
      7 C          64.3750   90.2019   14.9989 C.ar    1  UNL1       -0.0012
      8 C          63.5134   90.9460   15.9755 C.ar    1  UNL1       -0.0002
      9 C          62.6551   90.1902   16.9461 C.ar    1  UNL1        0.0013
     10 C          62.6585   88.6902   16.9400 C.ar    1  UNL1        0.0146
     11 C          63.5200   87.9460   15.9633 C.ar    1  UNL1        0.0499
     12 C          65.2333   90.9577   14.0282 C.ar    1  UNL1        0.0189
     13 C          66.6670   91.2461   14.3616 C.ar    1  UNL1        0.0031
     14 C          67.5254   92.0019   13.3909 C.ar    1  UNL1        0.0207
     15 C          66.9499   92.4694   12.0870 C.ar    1  UNL1        0.0989
     16 N          65.5160   92.1810   11.7537 N.ar    1  UNL1       -0.2423
     17 C          64.6578   91.4252   12.7243 C.ar    1  UNL1        0.0988
     18 C          63.3777   83.9366   16.1181 C.3     1  UNL1        0.2068
     19 C          63.0518   83.4151   14.7499 C.2     1  UNL1        0.3580
     20 N          62.8765   84.3691   13.6058 N.2     1  UNL1       -0.0039
     21 C          62.5506   83.8477   12.2376 C.2     1  UNL1        0.3159
     22 C          62.4000   82.3721   12.0136 C.3     1  UNL1        0.2333
     23 C          62.5754   81.4182   13.1577 C.2     1  UNL1        0.3644
     24 O          62.4248   79.9426   12.9337 O.2     1  UNL1       -0.2422
     25 N          62.9013   81.9396   14.5259 N.am    1  UNL1        0.0289
     26 N          62.3753   84.8017   11.0935 N.pl3   1  UNL1       -0.1888
     27 C          61.5105   86.0166   11.2557 C.3     1  UNL1        0.2343
     28 C          61.3353   86.9706   10.1115 C.3     1  UNL1        0.1929
     29 O          62.0248   86.7099    8.8052 O.3     1  UNL1       -0.3449
     30 C          62.8895   85.4950    8.6429 C.3     1  UNL1        0.1929
     31 C          63.0648   84.5410    9.7871 C.3     1  UNL1        0.2343
@<TRIPOS>BOND
     1     1     2    2
     2     2    18    1
     3    18    19    1
     4    19    20    1
     5    20    21    2
     6    21    26    1
     7    26    27    1
     8    27    28    1
     9    28    29    1
    10    29    30    1
    11    30    31    1
    12    21    22    1
    13    22    23    1
    14    23    24    2
    15    23    25    1
    16     2     3   am
    17     3     4    1
    18     4     5    1
    19     5     6    1
    20     6     7   ar
    21     7    12    1
    22    12    13   ar
    23    13    14   ar
    24    14    15   ar
    25    15    16   ar
    26    16    17   ar
    27     7     8   ar
    28     8     9   ar
    29     9    10   ar
    30    10    11   ar
    31    25    19    2
    32    11     3    1
    33    31    26    1
    34    11     6   ar
    35    17    12   ar
