@<TRIPOS>MOLECULE
*****
 46 50 0 0 0
SMALL
GASTEIGER

@<TRIPOS>ATOM
      1 C          60.2775   93.1685   -2.6913 C.2     1  UNL1        0.2253
      2 O          59.0562   92.3802   -3.0614 O.2     1  UNL1       -0.2749
      3 N          60.6296   93.3719   -1.2475 N.am    1  UNL1       -0.2787
      4 C          59.8602   92.8502   -0.0703 C.3     1  UNL1        0.1014
      5 C          60.5681   93.2887    1.1775 C.3     1  UNL1        0.0875
      6 C          61.7750   94.0815    0.7713 C.3     1  UNL1        0.0507
      7 C          61.8131   94.1329   -0.7273 C.3     1  UNL1        0.0982
      8 C          64.9455   94.7450   -7.4844 C.3     1  UNL1        0.0948
      9 C          63.7541   95.5076   -6.9857 C.2     1  UNL1        0.2261
     10 O          63.4318   96.8551   -7.5605 O.2     1  UNL1       -0.2749
     11 N          62.8849   94.9228   -5.9121 N.am    1  UNL1       -0.2795
     12 C          63.2072   93.5754   -5.3372 C.3     1  UNL1        0.0939
     13 C          62.3381   92.9906   -4.2636 C.3     1  UNL1        0.0306
     14 C          61.1466   93.7532   -3.7649 C.3     1  UNL1        0.0801
     15 C          60.8244   95.1007   -4.3397 C.3     1  UNL1        0.0306
     16 C          61.6935   95.6855   -5.4133 C.3     1  UNL1        0.0939
     17 C          62.7693   94.7121    1.7006 C.ar    1  UNL1       -0.0242
     18 C          62.7358   96.1920    1.9428 C.ar    1  UNL1       -0.0022
     19 C          63.7300   96.8227    2.8721 C.ar    1  UNL1        0.0293
     20 C          64.7579   95.9734    3.5593 C.ar    1  UNL1        0.1398
     21 F          65.7522   96.6040    4.4887 F       1  UNL1       -0.2042
     22 C          64.7914   94.4934    3.3171 C.ar    1  UNL1        0.0251
     23 C          63.7971   93.8628    2.3878 C.ar    1  UNL1       -0.0235
     24 C          63.8307   92.3829    2.1457 C.3     1  UNL1        0.0308
     25 C          60.1436   92.9874    2.5842 C.ar    1  UNL1        0.1821
     26 N          59.3691   93.9018    3.4864 N.ar    1  UNL1       -0.0606
     27 O          59.1659   93.1983    4.7955 O.2     1  UNL1       -0.3370
     28 C          59.8148   91.8491    4.7024 C.ar    1  UNL1        0.2391
     29 N          60.4191   91.7188    3.3356 N.ar    1  UNL1       -0.1946
     30 C          59.8528   90.8124    5.7857 C.3     1  UNL1        0.0901
     31 C          61.3508   90.7903    5.7120 C.3     1  UNL1        0.0137
     32 C          58.3547   90.8345    5.8594 C.3     1  UNL1        0.0137
     33 C          59.8907   89.7756    6.8690 C.ar    1  UNL1       -0.0145
     34 C          59.8751   90.1948    8.3092 C.ar    1  UNL1        0.0000
     35 C          59.9131   89.1580    9.3925 C.ar    1  UNL1        0.0711
     36 C          59.9667   87.7021    9.0357 C.ar    1  UNL1        0.0077
     37 C          59.9823   87.2829    7.5956 C.ar    1  UNL1        0.0711
     38 C          59.9443   88.3197    6.5122 C.ar    1  UNL1        0.0000
     39 C          59.8974   89.5772   10.8327 C.3     1  UNL1        0.4186
     40 F          59.8818   89.9964   12.2729 F       1  UNL1       -0.1659
     41 F          60.1911   90.9904   10.4246 F       1  UNL1       -0.1659
     42 F          59.6037   88.1639   11.2409 F       1  UNL1       -0.1659
     43 C          60.0359   85.8269    7.2388 C.3     1  UNL1        0.4186
     44 F          60.0895   84.3709    6.8820 F       1  UNL1       -0.1659
     45 F          61.5208   85.9275    7.0514 F       1  UNL1       -0.1659
     46 F          58.5511   85.7263    7.4262 F       1  UNL1       -0.1659
@<TRIPOS>BOND
     1     8     9    1
     2     9    10    2
     3     9    11   am
     4    11    12    1
     5    12    13    1
     6    13    14    1
     7    14     1    1
     8     1     2    2
     9     1     3   am
    10     3     4    1
    11     4     5    1
    12     5    25    1
    13    25    26   ar
    14    26    27   ar
    15    27    28   ar
    16    28    30    1
    17    30    31    1
    18    30    32    1
    19    30    33    1
    20    33    34   ar
    21    34    35   ar
    22    35    39    1
    23    39    40    1
    24    39    41    1
    25    39    42    1
    26    35    36   ar
    27    36    37   ar
    28    37    43    1
    29    43    44    1
    30    43    45    1
    31    43    46    1
    32    37    38   ar
    33    28    29   ar
    34     5     6    1
    35     6    17    1
    36    17    18   ar
    37    18    19   ar
    38    19    20   ar
    39    20    21    1
    40    20    22   ar
    41    22    23   ar
    42    23    24    1
    43     6     7    1
    44    14    15    1
    45    15    16    1
    46    16    11    1
    47     7     3    1
    48    29    25   ar
    49    23    17   ar
    50    38    33   ar
@<TRIPOS>MOLECULE
*****
 46 50 0 0 0
SMALL
GASTEIGER

@<TRIPOS>ATOM
      1 C          62.4867   84.6200    8.9861 C.2     1  UNL1        0.2253
      2 O          62.8200   83.8504    7.7425 O.2     1  UNL1       -0.2749
      3 N          61.7773   85.9378    8.8851 N.am    1  UNL1       -0.2787
      4 C          61.3403   86.6089    7.6168 C.3     1  UNL1        0.1014
      5 C          60.6732   87.9018    7.9826 C.3     1  UNL1        0.0875
      6 C          60.6980   88.0296    9.4770 C.3     1  UNL1        0.0507
      7 C          61.3803   86.8158   10.0348 C.3     1  UNL1        0.0982
      8 C          63.9477   83.3128   15.5745 C.3     1  UNL1        0.0948
      9 C          63.9914   82.4273   14.3646 C.2     1  UNL1        0.2261
     10 O          64.4112   80.9936   14.4993 O.2     1  UNL1       -0.2749
     11 N          63.6152   82.9755   13.0200 N.am    1  UNL1       -0.2795
     12 C          63.1954   84.4092   12.8852 C.3     1  UNL1        0.0939
     13 C          62.8192   84.9573   11.5406 C.3     1  UNL1        0.0306
     14 C          62.8629   84.0718   10.3307 C.3     1  UNL1        0.0801
     15 C          63.2827   82.6381   10.4655 C.3     1  UNL1        0.0306
     16 C          63.6589   82.0900   11.8101 C.3     1  UNL1        0.0939
     17 C          60.1386   89.1708   10.2736 C.ar    1  UNL1       -0.0242
     18 C          58.8218   89.0208   10.9759 C.ar    1  UNL1       -0.0022
     19 C          58.2623   90.1620   11.7727 C.ar    1  UNL1        0.0293
     20 C          59.0199   91.4532   11.8670 C.ar    1  UNL1        0.1398
     21 F          58.4605   92.5945   12.6637 F       1  UNL1       -0.2042
     22 C          60.3368   91.6032   11.1646 C.ar    1  UNL1        0.0251
     23 C          60.8962   90.4620   10.3679 C.ar    1  UNL1       -0.0235
     24 C          62.2130   90.6120    9.6657 C.3     1  UNL1        0.0308
     25 C          60.0847   88.8927    7.0226 C.ar    1  UNL1        0.1821
     26 N          58.6326   89.2490    6.9030 N.ar    1  UNL1       -0.0606
     27 O          58.4954   90.2779    5.8201 O.2     1  UNL1       -0.3370
     28 C          59.8628   90.5574    5.2704 C.ar    1  UNL1        0.2391
     29 N          60.8451   89.7013    6.0136 N.ar    1  UNL1       -0.1946
     30 C          60.1904   91.5234    4.1707 C.3     1  UNL1        0.0901
     31 C          58.7746   92.0184    4.1838 C.3     1  UNL1        0.0137
     32 C          61.6064   91.0283    4.1576 C.3     1  UNL1        0.0137
     33 C          60.5180   92.4894    3.0709 C.ar    1  UNL1       -0.0145
     34 C          61.9341   92.9393    2.8650 C.ar    1  UNL1        0.0000
     35 C          62.2617   93.9053    1.7652 C.ar    1  UNL1        0.0711
     36 C          61.1733   94.4214    0.8714 C.ar    1  UNL1        0.0077
     37 C          59.7572   93.9716    1.0773 C.ar    1  UNL1        0.0711
     38 C          59.4296   93.0055    2.1771 C.ar    1  UNL1        0.0000
     39 C          63.6778   94.3552    1.5592 C.3     1  UNL1        0.4186
     40 F          65.0938   94.8050    1.3533 F       1  UNL1       -0.1659
     41 F          64.1498   92.9398    1.7131 F       1  UNL1       -0.1659
     42 F          63.2057   95.7707    1.4054 F       1  UNL1       -0.1659
     43 C          58.6688   94.4877    0.1835 C.3     1  UNL1        0.4186
     44 F          57.5804   95.0038   -0.7103 F       1  UNL1       -0.1659
     45 F          59.1601   95.8892    0.3946 F       1  UNL1       -0.1659
     46 F          58.1776   93.0862   -0.0276 F       1  UNL1       -0.1659
@<TRIPOS>BOND
     1     8     9    1
     2     9    10    2
     3     9    11   am
     4    11    12    1
     5    12    13    1
     6    13    14    1
     7    14     1    1
     8     1     2    2
     9     1     3   am
    10     3     4    1
    11     4     5    1
    12     5    25    1
    13    25    26   ar
    14    26    27   ar
    15    27    28   ar
    16    28    30    1
    17    30    31    1
    18    30    32    1
    19    30    33    1
    20    33    34   ar
    21    34    35   ar
    22    35    39    1
    23    39    40    1
    24    39    41    1
    25    39    42    1
    26    35    36   ar
    27    36    37   ar
    28    37    43    1
    29    43    44    1
    30    43    45    1
    31    43    46    1
    32    37    38   ar
    33    28    29   ar
    34     5     6    1
    35     6    17    1
    36    17    18   ar
    37    18    19   ar
    38    19    20   ar
    39    20    21    1
    40    20    22   ar
    41    22    23   ar
    42    23    24    1
    43     6     7    1
    44    14    15    1
    45    15    16    1
    46    16    11    1
    47     7     3    1
    48    29    25   ar
    49    23    17   ar
    50    38    33   ar
@<TRIPOS>MOLECULE
*****
 46 50 0 0 0
SMALL
GASTEIGER

@<TRIPOS>ATOM
      1 C          62.5054   84.6258    8.9785 C.2     1  UNL1        0.2253
      2 O          62.8490   83.8594    7.7357 O.2     1  UNL1       -0.2749
      3 N          61.7896   85.9399    8.8753 N.am    1  UNL1       -0.2787
      4 C          61.3555   86.6102    7.6056 C.3     1  UNL1        0.1014
      5 C          60.6798   87.8992    7.9694 C.3     1  UNL1        0.0875
      6 C          60.6963   88.0254    9.4640 C.3     1  UNL1        0.0507
      7 C          61.3822   86.8146   10.0239 C.3     1  UNL1        0.0982
      8 C          63.9687   83.3266   15.5679 C.3     1  UNL1        0.0948
      9 C          63.9940   82.4349   14.3621 C.2     1  UNL1        0.2261
     10 O          64.3916   80.9953   14.5022 O.2     1  UNL1       -0.2749
     11 N          63.6219   82.9826   13.0162 N.am    1  UNL1       -0.2795
     12 C          63.2243   84.4221   12.8761 C.3     1  UNL1        0.0939
     13 C          62.8522   84.9699   11.5302 C.3     1  UNL1        0.0306
     14 C          62.8775   84.0781   10.3244 C.3     1  UNL1        0.0801
     15 C          63.2751   82.6385   10.4645 C.3     1  UNL1        0.0306
     16 C          63.6472   82.0908   11.8104 C.3     1  UNL1        0.0939
     17 C          60.1269   89.1627   10.2590 C.ar    1  UNL1       -0.0242
     18 C          58.8112   89.0023   10.9612 C.ar    1  UNL1       -0.0022
     19 C          58.2417   90.1396   11.7563 C.ar    1  UNL1        0.0293
     20 C          58.9881   91.4375   11.8492 C.ar    1  UNL1        0.1398
     21 F          58.4187   92.5748   12.6443 F       1  UNL1       -0.2042
     22 C          60.3038   91.5979   11.1470 C.ar    1  UNL1        0.0251
     23 C          60.8733   90.4605   10.3520 C.ar    1  UNL1       -0.0235
     24 C          62.1890   90.6210    9.6498 C.3     1  UNL1        0.0308
     25 C          60.0910   88.8881    7.0074 C.ar    1  UNL1        0.1821
     26 N          58.6386   89.2422    6.8857 N.ar    1  UNL1       -0.0606
     27 O          58.5012   90.2695    5.8014 O.2     1  UNL1       -0.3370
     28 C          59.8689   90.5503    5.2530 C.ar    1  UNL1        0.2391
     29 N          60.8514   89.6965    5.9984 N.ar    1  UNL1       -0.1946
     30 C          60.1964   91.5155    4.1525 C.3     1  UNL1        0.0901
     31 C          61.6224   91.0506    4.1692 C.3     1  UNL1        0.0137
     32 C          58.7703   91.9804    4.1357 C.3     1  UNL1        0.0137
     33 C          60.5239   92.4806    3.0520 C.ar    1  UNL1       -0.0145
     34 C          59.4315   93.0168    2.1748 C.ar    1  UNL1        0.0000
     35 C          59.7590   93.9819    1.0743 C.ar    1  UNL1        0.0711
     36 C          61.1789   94.4109    0.8508 C.ar    1  UNL1        0.0077
     37 C          62.2712   93.8748    1.7279 C.ar    1  UNL1        0.0711
     38 C          61.9437   92.9096    2.8285 C.ar    1  UNL1        0.0000
     39 C          58.6667   94.5180    0.1971 C.3     1  UNL1        0.4186
     40 F          57.5743   95.0541   -0.6800 F       1  UNL1       -0.1659
     41 F          58.1968   93.1193   -0.0726 F       1  UNL1       -0.1659
     42 F          59.1365   95.9168    0.4669 F       1  UNL1       -0.1659
     43 C          63.6911   94.3039    1.5045 C.3     1  UNL1        0.4186
     44 F          65.1110   94.7329    1.2811 F       1  UNL1       -0.1659
     45 F          63.2103   95.6318    0.9991 F       1  UNL1       -0.1659
     46 F          64.1719   92.9759    2.0099 F       1  UNL1       -0.1659
@<TRIPOS>BOND
     1     8     9    1
     2     9    10    2
     3     9    11   am
     4    11    12    1
     5    12    13    1
     6    13    14    1
     7    14     1    1
     8     1     2    2
     9     1     3   am
    10     3     4    1
    11     4     5    1
    12     5    25    1
    13    25    26   ar
    14    26    27   ar
    15    27    28   ar
    16    28    30    1
    17    30    31    1
    18    30    32    1
    19    30    33    1
    20    33    34   ar
    21    34    35   ar
    22    35    39    1
    23    39    40    1
    24    39    41    1
    25    39    42    1
    26    35    36   ar
    27    36    37   ar
    28    37    43    1
    29    43    44    1
    30    43    45    1
    31    43    46    1
    32    37    38   ar
    33    28    29   ar
    34     5     6    1
    35     6    17    1
    36    17    18   ar
    37    18    19   ar
    38    19    20   ar
    39    20    21    1
    40    20    22   ar
    41    22    23   ar
    42    23    24    1
    43     6     7    1
    44    14    15    1
    45    15    16    1
    46    16    11    1
    47     7     3    1
    48    29    25   ar
    49    23    17   ar
    50    38    33   ar
@<TRIPOS>MOLECULE
*****
 46 50 0 0 0
SMALL
GASTEIGER

@<TRIPOS>ATOM
      1 C          57.1643   93.2582   -1.6898 C.2     1  UNL1        0.2253
      2 O          55.8944   92.4721   -1.5509 O.2     1  UNL1       -0.2749
      3 N          58.1024   93.3795   -0.5257 N.am    1  UNL1       -0.2787
      4 C          57.9056   92.7731    0.8321 C.3     1  UNL1        0.1014
      5 C          59.0837   93.1474    1.6821 C.3     1  UNL1        0.0875
      6 C          60.0085   93.9851    0.8496 C.3     1  UNL1        0.0507
      7 C          59.4020   94.1286   -0.5149 C.3     1  UNL1        0.0982
      8 C          59.8177   95.6653   -7.5563 C.3     1  UNL1        0.0948
      9 C          58.4917   95.9175   -6.9020 C.2     1  UNL1        0.2261
     10 O          57.4975   96.8344   -7.5507 O.2     1  UNL1       -0.2749
     11 N          58.1598   95.2526   -5.5989 N.am    1  UNL1       -0.2795
     12 C          59.1540   94.3357   -4.9502 C.3     1  UNL1        0.0939
     13 C          58.8221   93.6709   -3.6472 C.3     1  UNL1        0.0306
     14 C          57.4962   93.9230   -2.9929 C.3     1  UNL1        0.0801
     15 C          56.5020   94.8400   -3.6416 C.3     1  UNL1        0.0306
     16 C          56.8339   95.5048   -4.9446 C.3     1  UNL1        0.0939
     17 C          61.3109   94.5756    1.3020 C.ar    1  UNL1       -0.0242
     18 C          61.3939   96.0329    1.6474 C.ar    1  UNL1       -0.0022
     19 C          62.6964   96.6235    2.0999 C.ar    1  UNL1        0.0293
     20 C          63.9159   95.7567    2.2070 C.ar    1  UNL1        0.1398
     21 F          65.2185   96.3472    2.6595 F       1  UNL1       -0.2042
     22 C          63.8329   94.2994    1.8616 C.ar    1  UNL1        0.0251
     23 C          62.5304   93.7088    1.4091 C.ar    1  UNL1       -0.0235
     24 C          62.4475   92.2515    1.0637 C.3     1  UNL1        0.0308
     25 C          59.2990   92.7531    3.1132 C.ar    1  UNL1        0.1821
     26 N          59.4317   93.6916    4.2758 N.ar    1  UNL1       -0.0606
     27 O          59.6342   92.8697    5.5142 O.2     1  UNL1       -0.3370
     28 C          59.6267   91.4233    5.1168 C.ar    1  UNL1        0.2391
     29 N          59.4196   91.3513    3.6329 N.ar    1  UNL1       -0.1946
     30 C          59.7965   90.2542    6.0411 C.3     1  UNL1        0.0901
     31 C          58.4144   89.7827    5.6988 C.3     1  UNL1        0.0137
     32 C          61.1788   90.7257    6.3836 C.3     1  UNL1        0.0137
     33 C          59.9664   89.0851    6.9654 C.ar    1  UNL1       -0.0145
     34 C          59.9149   89.2895    8.4506 C.ar    1  UNL1        0.0000
     35 C          60.0847   88.1204    9.3749 C.ar    1  UNL1        0.0711
     36 C          60.3061   86.7469    8.8141 C.ar    1  UNL1        0.0077
     37 C          60.3576   86.5425    7.3290 C.ar    1  UNL1        0.0711
     38 C          60.1877   87.7116    6.4046 C.ar    1  UNL1        0.0000
     39 C          60.0332   88.3248   10.8600 C.3     1  UNL1        0.4186
     40 F          59.9818   88.5291   12.3451 F       1  UNL1       -0.1659
     41 F          60.3755   86.8797   11.0707 F       1  UNL1       -0.1659
     42 F          59.6909   89.7700   10.6493 F       1  UNL1       -0.1659
     43 C          60.5789   85.1690    6.7682 C.3     1  UNL1        0.4186
     44 F          60.8003   83.7955    6.2074 F       1  UNL1       -0.1659
     45 F          59.1263   84.8530    6.9687 F       1  UNL1       -0.1659
     46 F          62.0315   85.4849    6.5677 F       1  UNL1       -0.1659
@<TRIPOS>BOND
     1     8     9    1
     2     9    10    2
     3     9    11   am
     4    11    12    1
     5    12    13    1
     6    13    14    1
     7    14     1    1
     8     1     2    2
     9     1     3   am
    10     3     4    1
    11     4     5    1
    12     5    25    1
    13    25    26   ar
    14    26    27   ar
    15    27    28   ar
    16    28    30    1
    17    30    31    1
    18    30    32    1
    19    30    33    1
    20    33    34   ar
    21    34    35   ar
    22    35    39    1
    23    39    40    1
    24    39    41    1
    25    39    42    1
    26    35    36   ar
    27    36    37   ar
    28    37    43    1
    29    43    44    1
    30    43    45    1
    31    43    46    1
    32    37    38   ar
    33    28    29   ar
    34     5     6    1
    35     6    17    1
    36    17    18   ar
    37    18    19   ar
    38    19    20   ar
    39    20    21    1
    40    20    22   ar
    41    22    23   ar
    42    23    24    1
    43     6     7    1
    44    14    15    1
    45    15    16    1
    46    16    11    1
    47     7     3    1
    48    29    25   ar
    49    23    17   ar
    50    38    33   ar
@<TRIPOS>MOLECULE
*****
 46 50 0 0 0
SMALL
GASTEIGER

@<TRIPOS>ATOM
      1 C          62.3778   89.3813   12.3325 C.2     1  UNL1        0.2253
      2 O          62.2667   90.8055   12.7900 O.2     1  UNL1       -0.2749
      3 N          61.9278   88.9993   10.9536 N.am    1  UNL1       -0.2787
      4 C          61.3493   89.9267    9.9263 C.3     1  UNL1        0.1014
      5 C          61.0412   89.1232    8.6976 C.3     1  UNL1        0.0875
      6 C          61.4293   87.6993    8.9655 C.3     1  UNL1        0.0507
      7 C          61.9772   87.6226   10.3597 C.3     1  UNL1        0.0982
      8 C          64.8549   83.8174   15.5196 C.3     1  UNL1        0.0948
      9 C          64.6223   85.2128   16.0184 C.2     1  UNL1        0.2261
     10 O          64.9508   85.5660   17.4387 O.2     1  UNL1       -0.2749
     11 N          64.0612   86.2549   15.0969 N.am    1  UNL1       -0.2795
     12 C          63.7327   85.9017   13.6766 C.3     1  UNL1        0.0939
     13 C          63.1715   86.9438   12.7552 C.3     1  UNL1        0.0306
     14 C          62.9389   88.3392   13.2540 C.3     1  UNL1        0.0801
     15 C          63.2674   88.6924   14.6743 C.3     1  UNL1        0.0306
     16 C          63.8286   87.6502   15.5957 C.3     1  UNL1        0.0939
     17 C          61.2934   86.5532    8.0074 C.ar    1  UNL1       -0.0242
     18 C          62.5184   85.8613    7.4871 C.ar    1  UNL1       -0.0022
     19 C          62.3825   84.7152    6.5290 C.ar    1  UNL1        0.0293
     20 C          61.0216   84.2610    6.0911 C.ar    1  UNL1        0.1398
     21 F          60.8856   83.1149    5.1330 F       1  UNL1       -0.2042
     22 C          59.7966   84.9530    6.6114 C.ar    1  UNL1        0.0251
     23 C          59.9325   86.0991    7.5696 C.ar    1  UNL1       -0.0235
     24 C          58.7076   86.7909    8.0898 C.3     1  UNL1        0.0308
     25 C          60.4490   89.6511    7.4246 C.ar    1  UNL1        0.1821
     26 N          59.0495   89.4154    6.9391 N.ar    1  UNL1       -0.0606
     27 O          58.8879   90.1260    5.6280 O.2     1  UNL1       -0.3370
     28 C          60.1875   90.8008    5.3032 C.ar    1  UNL1        0.2391
     29 N          61.1524   90.5073    6.4136 N.ar    1  UNL1       -0.1946
     30 C          60.4723   91.6244    4.0824 C.3     1  UNL1        0.0901
     31 C          59.0649   92.1426    4.1036 C.3     1  UNL1        0.0137
     32 C          61.8799   91.1063    4.0611 C.3     1  UNL1        0.0137
     33 C          60.7571   92.4481    2.8616 C.ar    1  UNL1       -0.0145
     34 C          62.1711   92.6383    2.3982 C.ar    1  UNL1        0.0000
     35 C          62.4559   93.4620    1.1774 C.ar    1  UNL1        0.0711
     36 C          61.3268   94.0955    0.4199 C.ar    1  UNL1        0.0077
     37 C          59.9129   93.9053    0.8832 C.ar    1  UNL1        0.0711
     38 C          59.6281   93.0816    2.1040 C.ar    1  UNL1        0.0000
     39 C          63.8699   93.6522    0.7141 C.3     1  UNL1        0.4186
     40 F          65.2837   93.8425    0.2507 F       1  UNL1       -0.1659
     41 F          63.4149   94.7201   -0.2359 F       1  UNL1       -0.1659
     42 F          64.3249   92.5843    1.6641 F       1  UNL1       -0.1659
     43 C          58.7838   94.5388    0.1256 C.3     1  UNL1        0.4186
     44 F          57.6547   95.1722   -0.6319 F       1  UNL1       -0.1659
     45 F          58.1110   93.2030    0.0115 F       1  UNL1       -0.1659
     46 F          59.4567   95.8745    0.2398 F       1  UNL1       -0.1659
@<TRIPOS>BOND
     1     8     9    1
     2     9    10    2
     3     9    11   am
     4    11    12    1
     5    12    13    1
     6    13    14    1
     7    14     1    1
     8     1     2    2
     9     1     3   am
    10     3     4    1
    11     4     5    1
    12     5    25    1
    13    25    26   ar
    14    26    27   ar
    15    27    28   ar
    16    28    30    1
    17    30    31    1
    18    30    32    1
    19    30    33    1
    20    33    34   ar
    21    34    35   ar
    22    35    39    1
    23    39    40    1
    24    39    41    1
    25    39    42    1
    26    35    36   ar
    27    36    37   ar
    28    37    43    1
    29    43    44    1
    30    43    45    1
    31    43    46    1
    32    37    38   ar
    33    28    29   ar
    34     5     6    1
    35     6    17    1
    36    17    18   ar
    37    18    19   ar
    38    19    20   ar
    39    20    21    1
    40    20    22   ar
    41    22    23   ar
    42    23    24    1
    43     6     7    1
    44    14    15    1
    45    15    16    1
    46    16    11    1
    47     7     3    1
    48    29    25   ar
    49    23    17   ar
    50    38    33   ar
@<TRIPOS>MOLECULE
*****
 46 50 0 0 0
SMALL
GASTEIGER

@<TRIPOS>ATOM
      1 C          62.3758   89.3732   12.3421 C.2     1  UNL1        0.2253
      2 O          62.2663   90.7975   12.7995 O.2     1  UNL1       -0.2749
      3 N          61.9287   88.9924   10.9619 N.am    1  UNL1       -0.2787
      4 C          61.3546   89.9211    9.9333 C.3     1  UNL1        0.1014
      5 C          61.0481   89.1186    8.7036 C.3     1  UNL1        0.0875
      6 C          61.4328   87.6938    8.9722 C.3     1  UNL1        0.0507
      7 C          61.9770   87.6158   10.3678 C.3     1  UNL1        0.0982
      8 C          64.8439   83.8066   15.5313 C.3     1  UNL1        0.0948
      9 C          64.6027   85.1995   16.0328 C.2     1  UNL1        0.2261
     10 O          64.9183   85.5491   17.4569 O.2     1  UNL1       -0.2749
     11 N          64.0460   86.2430   15.1101 N.am    1  UNL1       -0.2795
     12 C          63.7304   85.8934   13.6860 C.3     1  UNL1        0.0939
     13 C          63.1737   86.9369   12.7633 C.3     1  UNL1        0.0306
     14 C          62.9326   88.3298   13.2647 C.3     1  UNL1        0.0801
     15 C          63.2481   88.6793   14.6889 C.3     1  UNL1        0.0306
     16 C          63.8049   87.6359   15.6115 C.3     1  UNL1        0.0939
     17 C          61.2971   86.5482    8.0135 C.ar    1  UNL1       -0.0242
     18 C          62.5219   85.8504    7.5006 C.ar    1  UNL1       -0.0022
     19 C          62.3863   84.7048    6.5418 C.ar    1  UNL1        0.0293
     20 C          61.0258   84.2570    6.0960 C.ar    1  UNL1        0.1398
     21 F          60.8901   83.1114    5.1373 F       1  UNL1       -0.2042
     22 C          59.8011   84.9548    6.6090 C.ar    1  UNL1        0.0251
     23 C          59.9368   86.1004    7.5677 C.ar    1  UNL1       -0.0235
     24 C          58.7120   86.7982    8.0806 C.3     1  UNL1        0.0308
     25 C          60.4603   89.6479    7.4292 C.ar    1  UNL1        0.1821
     26 N          59.0688   89.3963    6.9289 N.ar    1  UNL1       -0.0606
     27 O          58.9092   90.1146    5.6218 O.2     1  UNL1       -0.3370
     28 C          60.2021   90.8101    5.3143 C.ar    1  UNL1        0.2391
     29 N          61.1608   90.5217    6.4313 N.ar    1  UNL1       -0.1946
     30 C          60.4864   91.6471    4.1024 C.3     1  UNL1        0.0901
     31 C          61.8957   91.1339    4.0786 C.3     1  UNL1        0.0137
     32 C          59.0771   92.1604    4.1262 C.3     1  UNL1        0.0137
     33 C          60.7708   92.4841    2.8906 C.ar    1  UNL1       -0.0145
     34 C          59.6386   93.0887    2.1142 C.ar    1  UNL1        0.0000
     35 C          59.9229   93.9257    0.9024 C.ar    1  UNL1        0.0711
     36 C          61.3394   94.1582    0.4669 C.ar    1  UNL1        0.0077
     37 C          62.4715   93.5537    1.2433 C.ar    1  UNL1        0.0711
     38 C          62.1872   92.7167    2.4552 C.ar    1  UNL1        0.0000
     39 C          58.7908   94.5302    0.1259 C.3     1  UNL1        0.4186
     40 F          57.6587   95.1348   -0.6505 F       1  UNL1       -0.1659
     41 F          59.4443   95.8769    0.2216 F       1  UNL1       -0.1659
     42 F          58.1372   93.1834    0.0302 F       1  UNL1       -0.1659
     43 C          63.8880   93.7862    0.8079 C.3     1  UNL1        0.4186
     44 F          65.3044   94.0188    0.3725 F       1  UNL1       -0.1659
     45 F          63.4794   95.0810    0.1703 F       1  UNL1       -0.1659
     46 F          64.2965   92.4915    1.4456 F       1  UNL1       -0.1659
@<TRIPOS>BOND
     1     8     9    1
     2     9    10    2
     3     9    11   am
     4    11    12    1
     5    12    13    1
     6    13    14    1
     7    14     1    1
     8     1     2    2
     9     1     3   am
    10     3     4    1
    11     4     5    1
    12     5    25    1
    13    25    26   ar
    14    26    27   ar
    15    27    28   ar
    16    28    30    1
    17    30    31    1
    18    30    32    1
    19    30    33    1
    20    33    34   ar
    21    34    35   ar
    22    35    39    1
    23    39    40    1
    24    39    41    1
    25    39    42    1
    26    35    36   ar
    27    36    37   ar
    28    37    43    1
    29    43    44    1
    30    43    45    1
    31    43    46    1
    32    37    38   ar
    33    28    29   ar
    34     5     6    1
    35     6    17    1
    36    17    18   ar
    37    18    19   ar
    38    19    20   ar
    39    20    21    1
    40    20    22   ar
    41    22    23   ar
    42    23    24    1
    43     6     7    1
    44    14    15    1
    45    15    16    1
    46    16    11    1
    47     7     3    1
    48    29    25   ar
    49    23    17   ar
    50    38    33   ar
