@<TRIPOS>MOLECULE
*****
 38 43 0 0 0
SMALL
GASTEIGER

@<TRIPOS>ATOM
      1 C          62.6995   89.1245   12.6056 C.3     1  UNL1        0.1412
      2 N          63.1248   87.7482   13.0238 N.3     1  UNL1       -0.2630
      3 C          64.0694   87.6846   14.1874 C.3     1  UNL1        0.0742
      4 C          64.6719   86.4745   14.8378 C.3     1  UNL1        0.0347
      5 C          64.4785   85.0295   14.4853 C.3     1  UNL1        0.0735
      6 N          63.6349   84.4374   13.3953 N.3     1  UNL1       -0.2727
      7 C          62.7764   85.1443   12.3887 C.3     1  UNL1        0.0896
      8 C          62.5494   86.6178   12.2235 C.3     1  UNL1        0.0902
      9 C          63.6522   82.9406   13.2994 C.3     1  UNL1        0.0575
     10 C          64.4125   81.9388   12.4817 C.3     1  UNL1        0.0160
     11 C          63.6766   80.8237   13.1636 C.3     1  UNL1        0.0028
     12 C          62.9163   81.8254   13.9812 C.3     1  UNL1        0.0160
     13 C          65.7008   92.4761   12.5120 C.ar    1  UNL1       -0.0062
     14 C          64.8592   92.1890   11.3040 C.ar    1  UNL1       -0.0032
     15 C          63.8588   91.0719   11.3351 C.ar    1  UNL1       -0.0028
     16 C          63.6999   90.2417   12.5744 C.ar    1  UNL1       -0.0005
     17 C          64.5415   90.5287   13.7824 C.ar    1  UNL1       -0.0028
     18 C          65.5419   91.6460   13.7512 C.ar    1  UNL1       -0.0032
     19 C          66.7013   93.5933   12.4808 C.3     1  UNL1        0.0992
     20 C          67.4008   96.8559    7.4943 C.3     1  UNL1        0.0897
     21 N          67.2259   96.0402    8.7409 N.3     1  UNL1       -0.2691
     22 C          67.7879   94.6514    8.8135 C.3     1  UNL1        0.0897
     23 C          67.6131   93.8357   10.0602 C.3     1  UNL1        0.0899
     24 N          66.8762   94.4090   11.2342 N.3     1  UNL1       -0.2665
     25 C          66.3141   95.7977   11.1617 C.3     1  UNL1        0.0899
     26 C          66.4890   96.6134    9.9150 C.3     1  UNL1        0.0897
     27 C          61.2736   89.3836   12.2184 C.ar    1  UNL1        0.1798
     28 N          60.1521   89.7180   13.1567 N.ar    1  UNL1       -0.1110
     29 N          58.9043   89.8948   12.3433 N.ar    1  UNL1       -0.0229
     30 N          59.2546   89.6697   10.9023 N.ar    1  UNL1       -0.0428
     31 N          60.7189   89.3537   10.8251 N.ar    1  UNL1       -0.2108
     32 C          61.4928   89.0596    9.5742 C.3     1  UNL1        0.1570
     33 C          61.3231   87.7407    8.8800 C.ar    1  UNL1        0.0022
     34 C          62.4404   86.7400    8.8876 C.ar    1  UNL1       -0.0023
     35 C          62.2708   85.4212    8.1935 C.ar    1  UNL1       -0.0003
     36 C          60.9838   85.1031    7.4916 C.ar    1  UNL1       -0.0000
     37 C          59.8665   86.1039    7.4840 C.ar    1  UNL1       -0.0003
     38 C          60.0361   87.4228    8.1782 C.ar    1  UNL1       -0.0023
@<TRIPOS>BOND
     1    20    21    1
     2    21    22    1
     3    22    23    1
     4    23    24    1
     5    24    19    1
     6    19    13    1
     7    13    14   ar
     8    14    15   ar
     9    15    16   ar
    10    16     1    1
    11     1    27    1
    12    27    28   ar
    13    28    29   ar
    14    29    30   ar
    15    30    31   ar
    16    31    32    1
    17    32    33    1
    18    33    34   ar
    19    34    35   ar
    20    35    36   ar
    21    36    37   ar
    22    37    38   ar
    23     1     2    1
    24     2     3    1
    25     3     4    1
    26     4     5    1
    27     5     6    1
    28     6     9    1
    29     9    10    1
    30    10    11    1
    31    11    12    1
    32     6     7    1
    33     7     8    1
    34    16    17   ar
    35    17    18   ar
    36    24    25    1
    37    25    26    1
    38    26    21    1
    39    18    13   ar
    40    31    27   ar
    41    38    33   ar
    42     8     2    1
    43    12     9    1
@<TRIPOS>MOLECULE
*****
 38 43 0 0 0
SMALL
GASTEIGER

@<TRIPOS>ATOM
      1 C          63.2146   89.5186   13.5184 C.3     1  UNL1        0.1412
      2 N          62.2722   89.0316   12.4579 N.3     1  UNL1       -0.2630
      3 C          60.8971   89.6303   12.4845 C.3     1  UNL1        0.0742
      4 C          59.7396   89.3555   11.5707 C.3     1  UNL1        0.0347
      5 C          59.6715   88.4143   10.4048 C.3     1  UNL1        0.0735
      6 N          60.7440   87.5154    9.8645 N.3     1  UNL1       -0.2727
      7 C          62.1494   87.3357   10.3568 C.3     1  UNL1        0.0896
      8 C          62.8295   88.0105   11.5110 C.3     1  UNL1        0.0902
      9 C          60.3602   86.6867    8.6746 C.3     1  UNL1        0.0575
     10 C          59.1190   86.5299    7.8470 C.3     1  UNL1        0.0160
     11 C          59.8175   85.5146    6.9918 C.3     1  UNL1        0.0028
     12 C          61.0587   85.6713    7.8194 C.3     1  UNL1        0.0160
     13 C          65.9668   92.9757   12.6680 C.ar    1  UNL1       -0.0062
     14 C          66.0959   92.2129   13.9530 C.ar    1  UNL1       -0.0032
     15 C          65.1785   91.0605   14.2366 C.ar    1  UNL1       -0.0028
     16 C          64.1320   90.6710   13.2349 C.ar    1  UNL1       -0.0005
     17 C          64.0029   91.4338   11.9498 C.ar    1  UNL1       -0.0028
     18 C          64.9204   92.5862   11.6664 C.ar    1  UNL1       -0.0032
     19 C          66.8843   94.1281   12.3844 C.3     1  UNL1        0.0992
     20 C          66.7146   96.8540    7.0421 C.3     1  UNL1        0.0897
     21 N          66.7570   96.1725    8.3777 N.3     1  UNL1       -0.2691
     22 C          67.4570   94.8541    8.5251 C.3     1  UNL1        0.0897
     23 C          67.4995   94.1726    9.8607 C.3     1  UNL1        0.0899
     24 N          66.8419   94.8096   11.0489 N.3     1  UNL1       -0.2665
     25 C          66.1418   96.1280   10.9015 C.3     1  UNL1        0.0899
     26 C          66.0994   96.8094    9.5660 C.3     1  UNL1        0.0897
     27 C          63.2395   88.8532   14.8625 C.ar    1  UNL1        0.1798
     28 N          62.7553   89.4499   16.1508 N.ar    1  UNL1       -0.1110
     29 N          62.9695   88.4398   17.2388 N.ar    1  UNL1       -0.0229
     30 N          63.5860   87.2189   16.6230 N.ar    1  UNL1       -0.0428
     31 N          63.7528   87.4744   15.1544 N.ar    1  UNL1       -0.2108
     32 C          64.3315   86.5188   14.1533 C.3     1  UNL1        0.1570
     33 C          63.7225   85.1596   13.9750 C.ar    1  UNL1        0.0022
     34 C          63.3358   84.3476   15.1755 C.ar    1  UNL1       -0.0023
     35 C          62.7269   82.9885   14.9972 C.ar    1  UNL1       -0.0003
     36 C          62.5048   82.4412   13.6183 C.ar    1  UNL1       -0.0000
     37 C          62.8915   83.2531   12.4178 C.ar    1  UNL1       -0.0003
     38 C          63.5005   84.6124   12.5962 C.ar    1  UNL1       -0.0023
@<TRIPOS>BOND
     1    20    21    1
     2    21    22    1
     3    22    23    1
     4    23    24    1
     5    24    19    1
     6    19    13    1
     7    13    14   ar
     8    14    15   ar
     9    15    16   ar
    10    16     1    1
    11     1    27    1
    12    27    28   ar
    13    28    29   ar
    14    29    30   ar
    15    30    31   ar
    16    31    32    1
    17    32    33    1
    18    33    34   ar
    19    34    35   ar
    20    35    36   ar
    21    36    37   ar
    22    37    38   ar
    23     1     2    1
    24     2     3    1
    25     3     4    1
    26     4     5    1
    27     5     6    1
    28     6     9    1
    29     9    10    1
    30    10    11    1
    31    11    12    1
    32     6     7    1
    33     7     8    1
    34    16    17   ar
    35    17    18   ar
    36    24    25    1
    37    25    26    1
    38    26    21    1
    39    18    13   ar
    40    31    27   ar
    41    38    33   ar
    42     8     2    1
    43    12     9    1
@<TRIPOS>MOLECULE
*****
 38 43 0 0 0
SMALL
GASTEIGER

@<TRIPOS>ATOM
      1 C          62.9011   89.7893   12.3933 C.3     1  UNL1        0.1412
      2 N          63.8843   90.9139   12.2573 N.3     1  UNL1       -0.2630
      3 C          64.6721   91.2422   13.4909 C.3     1  UNL1        0.0742
      4 C          65.7200   92.2993   13.6776 C.3     1  UNL1        0.0347
      5 C          66.2387   93.2889   12.6769 C.3     1  UNL1        0.0735
      6 N          65.8378   93.4661   11.2424 N.3     1  UNL1       -0.2727
      7 C          64.8191   92.6973   10.4542 C.3     1  UNL1        0.0896
      8 C          63.9497   91.5615   10.9060 C.3     1  UNL1        0.0902
      9 C          66.5497   94.5562   10.4975 C.3     1  UNL1        0.0575
     10 C          67.5697   94.5987    9.3985 C.3     1  UNL1        0.0160
     11 C          67.5565   96.0979    9.4441 C.3     1  UNL1        0.0028
     12 C          66.5365   96.0556   10.5431 C.3     1  UNL1        0.0160
     13 C          64.2110   85.8540   14.1389 C.ar    1  UNL1       -0.0062
     14 C          63.4256   85.8834   12.8613 C.ar    1  UNL1       -0.0032
     15 C          62.9890   87.1952   12.2794 C.ar    1  UNL1       -0.0028
     16 C          63.3377   88.4775   12.9752 C.ar    1  UNL1       -0.0005
     17 C          64.1231   88.4481   14.2527 C.ar    1  UNL1       -0.0028
     18 C          64.5598   87.1362   14.8346 C.ar    1  UNL1       -0.0032
     19 C          64.6477   84.5421   14.7208 C.3     1  UNL1        0.0992
     20 C          61.8495   79.4769   13.1355 C.3     1  UNL1        0.0897
     21 N          62.5491   80.7432   13.5318 N.3     1  UNL1       -0.2691
     22 C          63.8817   81.0829   12.9330 C.3     1  UNL1        0.0897
     23 C          64.5813   82.3492   13.3292 C.3     1  UNL1        0.0899
     24 N          63.9481   83.2758   14.3244 N.3     1  UNL1       -0.2665
     25 C          62.6155   82.9363   14.9233 C.3     1  UNL1        0.0899
     26 C          61.9160   81.6700   14.5270 C.3     1  UNL1        0.0897
     27 C          61.4812   89.9764   11.9473 C.ar    1  UNL1        0.1798
     28 N          60.3519   90.4878   12.7920 N.ar    1  UNL1       -0.1110
     29 N          59.1141   90.5125   11.9451 N.ar    1  UNL1       -0.0229
     30 N          59.4783   90.0165   10.5772 N.ar    1  UNL1       -0.0428
     31 N          60.9412   89.6852   10.5785 N.ar    1  UNL1       -0.2108
     32 C          61.7264   89.1556    9.4154 C.3     1  UNL1        0.1570
     33 C          61.3344   87.8571    8.7748 C.ar    1  UNL1        0.0022
     34 C          62.2974   86.7071    8.7604 C.ar    1  UNL1       -0.0023
     35 C          61.9055   85.4086    8.1199 C.ar    1  UNL1       -0.0003
     36 C          60.5505   85.2602    7.4936 C.ar    1  UNL1       -0.0000
     37 C          59.5875   86.4102    7.5080 C.ar    1  UNL1       -0.0003
     38 C          59.9795   87.7087    8.1486 C.ar    1  UNL1       -0.0023
@<TRIPOS>BOND
     1    20    21    1
     2    21    22    1
     3    22    23    1
     4    23    24    1
     5    24    19    1
     6    19    13    1
     7    13    14   ar
     8    14    15   ar
     9    15    16   ar
    10    16     1    1
    11     1    27    1
    12    27    28   ar
    13    28    29   ar
    14    29    30   ar
    15    30    31   ar
    16    31    32    1
    17    32    33    1
    18    33    34   ar
    19    34    35   ar
    20    35    36   ar
    21    36    37   ar
    22    37    38   ar
    23     1     2    1
    24     2     3    1
    25     3     4    1
    26     4     5    1
    27     5     6    1
    28     6     9    1
    29     9    10    1
    30    10    11    1
    31    11    12    1
    32     6     7    1
    33     7     8    1
    34    16    17   ar
    35    17    18   ar
    36    24    25    1
    37    25    26    1
    38    26    21    1
    39    18    13   ar
    40    31    27   ar
    41    38    33   ar
    42     8     2    1
    43    12     9    1
@<TRIPOS>MOLECULE
*****
 38 43 0 0 0
SMALL
GASTEIGER

@<TRIPOS>ATOM
      1 C          62.9669   89.1257   12.7427 C.3     1  UNL1        0.1412
      2 N          64.0023   90.1803   12.9990 N.3     1  UNL1       -0.2630
      3 C          64.1458   91.2245   11.9316 C.3     1  UNL1        0.0742
      4 C          65.0797   92.3976   11.8904 C.3     1  UNL1        0.0347
      5 C          66.1007   92.8162   12.9063 C.3     1  UNL1        0.0735
      6 N          66.4401   92.1652   14.2144 N.3     1  UNL1       -0.2727
      7 C          65.8423   90.9348   14.8296 C.3     1  UNL1        0.0896
      8 C          64.7573   90.0514   14.2886 C.3     1  UNL1        0.0902
      9 C          67.5202   92.8330   15.0128 C.3     1  UNL1        0.0575
     10 C          68.6487   92.3557   15.8782 C.3     1  UNL1        0.0160
     11 C          69.0477   93.7773   16.1420 C.3     1  UNL1        0.0028
     12 C          67.9193   94.2547   15.2766 C.3     1  UNL1        0.0160
     13 C          63.9030   84.8038   13.5760 C.ar    1  UNL1       -0.0062
     14 C          63.0027   85.1693   12.4332 C.ar    1  UNL1       -0.0032
     15 C          62.6907   86.6099   12.1554 C.ar    1  UNL1       -0.0028
     16 C          63.2790   87.6851   13.0205 C.ar    1  UNL1       -0.0005
     17 C          64.1792   87.3195   14.1632 C.ar    1  UNL1       -0.0028
     18 C          64.4912   85.8788   14.4409 C.ar    1  UNL1       -0.0032
     19 C          64.2150   83.3630   13.8538 C.3     1  UNL1        0.0992
     20 C          62.6417   79.1357    9.8973 C.3     1  UNL1        0.0897
     21 N          63.0350   80.1926   10.8864 N.3     1  UNL1       -0.2691
     22 C          63.7543   81.4241   10.4219 C.3     1  UNL1        0.0897
     23 C          64.1477   82.4810   11.4110 C.3     1  UNL1        0.0899
     24 N          63.8217   82.3062   12.8647 N.3     1  UNL1       -0.2665
     25 C          63.1024   81.0747   13.3293 C.3     1  UNL1        0.0899
     26 C          62.7091   80.0179   12.3401 C.3     1  UNL1        0.0897
     27 C          61.6195   89.5118   12.2085 C.ar    1  UNL1        0.1798
     28 N          60.4855   90.0840   13.0066 N.ar    1  UNL1       -0.1110
     29 N          59.3346   90.3193   12.0738 N.ar    1  UNL1       -0.0229
     30 N          59.7572   89.8925   10.6993 N.ar    1  UNL1       -0.0428
     31 N          61.1693   89.3934   10.7826 N.ar    1  UNL1       -0.2108
     32 C          61.9876   88.8683    9.6404 C.3     1  UNL1        0.1570
     33 C          61.5296   87.6563    8.8845 C.ar    1  UNL1        0.0022
     34 C          60.1257   87.5851    8.3611 C.ar    1  UNL1       -0.0023
     35 C          59.6676   86.3732    7.6052 C.ar    1  UNL1       -0.0003
     36 C          60.6135   85.2324    7.3728 C.ar    1  UNL1       -0.0000
     37 C          62.0174   85.3036    7.8962 C.ar    1  UNL1       -0.0003
     38 C          62.4755   86.5156    8.6521 C.ar    1  UNL1       -0.0023
@<TRIPOS>BOND
     1    20    21    1
     2    21    22    1
     3    22    23    1
     4    23    24    1
     5    24    19    1
     6    19    13    1
     7    13    14   ar
     8    14    15   ar
     9    15    16   ar
    10    16     1    1
    11     1    27    1
    12    27    28   ar
    13    28    29   ar
    14    29    30   ar
    15    30    31   ar
    16    31    32    1
    17    32    33    1
    18    33    34   ar
    19    34    35   ar
    20    35    36   ar
    21    36    37   ar
    22    37    38   ar
    23     1     2    1
    24     2     3    1
    25     3     4    1
    26     4     5    1
    27     5     6    1
    28     6     9    1
    29     9    10    1
    30    10    11    1
    31    11    12    1
    32     6     7    1
    33     7     8    1
    34    16    17   ar
    35    17    18   ar
    36    24    25    1
    37    25    26    1
    38    26    21    1
    39    18    13   ar
    40    31    27   ar
    41    38    33   ar
    42     8     2    1
    43    12     9    1
@<TRIPOS>MOLECULE
*****
 38 43 0 0 0
SMALL
GASTEIGER

@<TRIPOS>ATOM
      1 C          62.6343   88.6134   11.7178 C.3     1  UNL1        0.1412
      2 N          62.9155   87.3365   12.4531 N.3     1  UNL1       -0.2630
      3 C          63.8217   87.4566   13.6424 C.3     1  UNL1        0.0742
      4 C          64.2896   86.3782   14.5743 C.3     1  UNL1        0.0347
      5 C          63.9669   84.9137   14.5469 C.3     1  UNL1        0.0735
      6 N          63.0967   84.1656   13.5810 N.3     1  UNL1       -0.2727
      7 C          62.3341   84.6974   12.4039 C.3     1  UNL1        0.0896
      8 C          62.2536   86.1086   11.9019 C.3     1  UNL1        0.0902
      9 C          62.9725   82.6907   13.8244 C.3     1  UNL1        0.0575
     10 C          63.9363   81.5441   13.9047 C.3     1  UNL1        0.0160
     11 C          62.7970   80.6049   14.1687 C.3     1  UNL1        0.0028
     12 C          61.8331   81.7514   14.0884 C.3     1  UNL1        0.0160
     13 C          65.2494   92.2148   12.3813 C.ar    1  UNL1       -0.0062
     14 C          64.9419   91.2908   13.5222 C.ar    1  UNL1       -0.0032
     15 C          64.0702   90.0903   13.3010 C.ar    1  UNL1       -0.0028
     16 C          63.5060   89.8138   11.9389 C.ar    1  UNL1       -0.0005
     17 C          63.8135   90.7378   10.7980 C.ar    1  UNL1       -0.0028
     18 C          64.6852   91.9384   11.0193 C.ar    1  UNL1       -0.0032
     19 C          66.1211   93.4154   12.6025 C.3     1  UNL1        0.0992
     20 C          67.7341   96.8490    7.9540 C.3     1  UNL1        0.0897
     21 N          67.3309   95.9906    9.1161 N.3     1  UNL1       -0.2691
     22 C          66.3487   96.5074   10.1251 C.3     1  UNL1        0.0897
     23 C          65.9453   95.6490   11.2873 C.3     1  UNL1        0.0899
     24 N          66.5244   94.2738   11.4403 N.3     1  UNL1       -0.2665
     25 C          67.5066   93.7569   10.4314 C.3     1  UNL1        0.0899
     26 C          67.9098   94.6153    9.2693 C.3     1  UNL1        0.0897
     27 C          61.4813   88.6896   10.7613 C.ar    1  UNL1        0.1798
     28 N          60.2936   89.5978   10.8827 N.ar    1  UNL1       -0.1110
     29 N          59.3918   89.3405    9.7120 N.ar    1  UNL1       -0.0229
     30 N          60.0221   88.2734    8.8671 N.ar    1  UNL1       -0.0428
     31 N          61.3135   87.8711    9.5156 N.ar    1  UNL1       -0.2108
     32 C          62.2693   86.8326    9.0076 C.3     1  UNL1        0.1570
     33 C          61.8521   85.9044    7.9055 C.ar    1  UNL1        0.0022
     34 C          60.3983   85.7369    7.5761 C.ar    1  UNL1       -0.0023
     35 C          59.9811   84.8087    6.4741 C.ar    1  UNL1       -0.0003
     36 C          61.0178   84.0481    5.7015 C.ar    1  UNL1       -0.0000
     37 C          62.4715   84.2157    6.0309 C.ar    1  UNL1       -0.0003
     38 C          62.8887   85.1439    7.1329 C.ar    1  UNL1       -0.0023
@<TRIPOS>BOND
     1    20    21    1
     2    21    22    1
     3    22    23    1
     4    23    24    1
     5    24    19    1
     6    19    13    1
     7    13    14   ar
     8    14    15   ar
     9    15    16   ar
    10    16     1    1
    11     1    27    1
    12    27    28   ar
    13    28    29   ar
    14    29    30   ar
    15    30    31   ar
    16    31    32    1
    17    32    33    1
    18    33    34   ar
    19    34    35   ar
    20    35    36   ar
    21    36    37   ar
    22    37    38   ar
    23     1     2    1
    24     2     3    1
    25     3     4    1
    26     4     5    1
    27     5     6    1
    28     6     9    1
    29     9    10    1
    30    10    11    1
    31    11    12    1
    32     6     7    1
    33     7     8    1
    34    16    17   ar
    35    17    18   ar
    36    24    25    1
    37    25    26    1
    38    26    21    1
    39    18    13   ar
    40    31    27   ar
    41    38    33   ar
    42     8     2    1
    43    12     9    1
@<TRIPOS>MOLECULE
*****
 38 43 0 0 0
SMALL
GASTEIGER

@<TRIPOS>ATOM
      1 C          63.5164   90.3812   13.3643 C.3     1  UNL1        0.1412
      2 N          64.4410   91.4436   12.8481 N.3     1  UNL1       -0.2630
      3 C          65.3573   92.0586   13.8642 C.3     1  UNL1        0.0742
      4 C          66.3861   93.1324   13.6672 C.3     1  UNL1        0.0347
      5 C          66.7524   93.8564   12.4057 C.3     1  UNL1        0.0735
      6 N          66.1807   93.6855   11.0295 N.3     1  UNL1       -0.2727
      7 C          65.1013   92.7483   10.5750 C.3     1  UNL1        0.0896
      8 C          64.3271   91.7506   11.3844 C.3     1  UNL1        0.0902
      9 C          66.7657   94.5685    9.9675 C.3     1  UNL1        0.0575
     10 C          67.5992   94.3429    8.7409 C.3     1  UNL1        0.0160
     11 C          67.5930   95.8173    8.4654 C.3     1  UNL1        0.0028
     12 C          66.7595   96.0431    9.6919 C.3     1  UNL1        0.0160
     13 C          60.8808   88.1111   10.5095 C.ar    1  UNL1       -0.0062
     14 C          62.1991   87.5345   10.9331 C.ar    1  UNL1       -0.0032
     15 C          63.0777   88.2911   11.8847 C.ar    1  UNL1       -0.0028
     16 C          62.6378   89.6245   12.4127 C.ar    1  UNL1       -0.0005
     17 C          61.3195   90.2012   11.9891 C.ar    1  UNL1       -0.0028
     18 C          60.4410   89.4444   11.0375 C.ar    1  UNL1       -0.0032
     19 C          60.0022   87.3544    9.5579 C.3     1  UNL1        0.0992
     20 C          62.4540   83.8057    5.3871 C.3     1  UNL1        0.0897
     21 N          61.8410   84.6929    6.4298 N.3     1  UNL1       -0.2691
     22 C          60.3985   85.0898    6.3231 C.3     1  UNL1        0.0897
     23 C          59.7854   85.9770    7.3657 C.3     1  UNL1        0.0899
     24 N          60.6151   86.4672    8.5152 N.3     1  UNL1       -0.2665
     25 C          62.0577   86.0703    8.6221 C.3     1  UNL1        0.0899
     26 C          62.6706   85.1832    7.5794 C.3     1  UNL1        0.0897
     27 C          63.4704   90.0756   14.8321 C.ar    1  UNL1        0.1798
     28 N          62.9469   90.9830   15.9057 N.ar    1  UNL1       -0.1110
     29 N          63.0928   90.2771   17.2211 N.ar    1  UNL1       -0.0229
     30 N          63.7064   88.9334   16.9605 N.ar    1  UNL1       -0.0428
     31 N          63.9398   88.8088   15.4841 N.ar    1  UNL1       -0.2108
     32 C          64.5376   87.6254   14.7826 C.3     1  UNL1        0.1570
     33 C          63.8691   86.2854   14.8698 C.ar    1  UNL1        0.0022
     34 C          63.3175   85.8062   16.1798 C.ar    1  UNL1       -0.0023
     35 C          62.6490   84.4663   16.2670 C.ar    1  UNL1       -0.0003
     36 C          62.5320   83.6055   15.0441 C.ar    1  UNL1       -0.0000
     37 C          63.0836   84.0847   13.7341 C.ar    1  UNL1       -0.0003
     38 C          63.7521   85.4247   13.6469 C.ar    1  UNL1       -0.0023
@<TRIPOS>BOND
     1    20    21    1
     2    21    22    1
     3    22    23    1
     4    23    24    1
     5    24    19    1
     6    19    13    1
     7    13    14   ar
     8    14    15   ar
     9    15    16   ar
    10    16     1    1
    11     1    27    1
    12    27    28   ar
    13    28    29   ar
    14    29    30   ar
    15    30    31   ar
    16    31    32    1
    17    32    33    1
    18    33    34   ar
    19    34    35   ar
    20    35    36   ar
    21    36    37   ar
    22    37    38   ar
    23     1     2    1
    24     2     3    1
    25     3     4    1
    26     4     5    1
    27     5     6    1
    28     6     9    1
    29     9    10    1
    30    10    11    1
    31    11    12    1
    32     6     7    1
    33     7     8    1
    34    16    17   ar
    35    17    18   ar
    36    24    25    1
    37    25    26    1
    38    26    21    1
    39    18    13   ar
    40    31    27   ar
    41    38    33   ar
    42     8     2    1
    43    12     9    1
@<TRIPOS>MOLECULE
*****
 38 43 0 0 0
SMALL
GASTEIGER

@<TRIPOS>ATOM
      1 C          63.2515   90.1517   12.7680 C.3     1  UNL1        0.1412
      2 N          64.2206   91.2782   12.5635 N.3     1  UNL1       -0.2630
      3 C          65.1060   91.5951   13.7322 C.3     1  UNL1        0.0742
      4 C          66.1658   92.6510   13.8434 C.3     1  UNL1        0.0347
      5 C          66.6017   93.6505   12.8135 C.3     1  UNL1        0.0735
      6 N          66.0857   93.8413   11.4180 N.3     1  UNL1       -0.2727
      7 C          65.0062   93.0795   10.7078 C.3     1  UNL1        0.0896
      8 C          64.1762   91.9388   11.2177 C.3     1  UNL1        0.0902
      9 C          66.7349   94.9390   10.6284 C.3     1  UNL1        0.0575
     10 C          66.7149   96.4380   10.6808 C.3     1  UNL1        0.0160
     11 C          67.6532   96.4914    9.5117 C.3     1  UNL1        0.0028
     12 C          67.6733   94.9924    9.4593 C.3     1  UNL1        0.0160
     13 C          60.5259   88.8920    9.4163 C.ar    1  UNL1       -0.0062
     14 C          60.1550   90.0553   10.2876 C.ar    1  UNL1       -0.0032
     15 C          61.0635   90.4752   11.4048 C.ar    1  UNL1       -0.0028
     16 C          62.3430   89.7318   11.6508 C.ar    1  UNL1       -0.0005
     17 C          62.7139   88.5685   10.7795 C.ar    1  UNL1       -0.0028
     18 C          61.8053   88.1487    9.6622 C.ar    1  UNL1       -0.0032
     19 C          59.6174   88.4721    8.2990 C.3     1  UNL1        0.0992
     20 C          58.7221   92.1268    3.6255 C.3     1  UNL1        0.0897
     21 N          58.9459   91.2131    4.7939 N.3     1  UNL1       -0.2691
     22 C          57.7737   90.6150    5.5136 C.3     1  UNL1        0.0897
     23 C          57.9974   89.7013    6.6820 C.3     1  UNL1        0.0899
     24 N          59.3935   89.3858    7.1306 N.3     1  UNL1       -0.2665
     25 C          60.5658   89.9838    6.4110 C.3     1  UNL1        0.0899
     26 C          60.3420   90.8975    5.2426 C.3     1  UNL1        0.0897
     27 C          63.1909   89.4452   14.0898 C.ar    1  UNL1        0.1798
     28 N          62.6997   90.0304   15.3807 N.ar    1  UNL1       -0.1110
     29 N          62.8161   88.9763   16.4415 N.ar    1  UNL1       -0.0229
     30 N          63.3792   87.7396   15.8062 N.ar    1  UNL1       -0.0428
     31 N          63.6108   88.0294   14.3528 N.ar    1  UNL1       -0.2108
     32 C          64.1650   87.0716   13.3402 C.3     1  UNL1        0.1570
     33 C          63.8077   85.6164   13.4101 C.ar    1  UNL1        0.0022
     34 C          62.9725   84.9964   12.3294 C.ar    1  UNL1       -0.0023
     35 C          62.6153   83.5413   12.3992 C.ar    1  UNL1       -0.0003
     36 C          63.0932   82.7061   13.5500 C.ar    1  UNL1       -0.0000
     37 C          63.9284   83.3261   14.6307 C.ar    1  UNL1       -0.0003
     38 C          64.2857   84.7813   14.5608 C.ar    1  UNL1       -0.0023
@<TRIPOS>BOND
     1    20    21    1
     2    21    22    1
     3    22    23    1
     4    23    24    1
     5    24    19    1
     6    19    13    1
     7    13    14   ar
     8    14    15   ar
     9    15    16   ar
    10    16     1    1
    11     1    27    1
    12    27    28   ar
    13    28    29   ar
    14    29    30   ar
    15    30    31   ar
    16    31    32    1
    17    32    33    1
    18    33    34   ar
    19    34    35   ar
    20    35    36   ar
    21    36    37   ar
    22    37    38   ar
    23     1     2    1
    24     2     3    1
    25     3     4    1
    26     4     5    1
    27     5     6    1
    28     6     9    1
    29     9    10    1
    30    10    11    1
    31    11    12    1
    32     6     7    1
    33     7     8    1
    34    16    17   ar
    35    17    18   ar
    36    24    25    1
    37    25    26    1
    38    26    21    1
    39    18    13   ar
    40    31    27   ar
    41    38    33   ar
    42     8     2    1
    43    12     9    1
@<TRIPOS>MOLECULE
*****
 38 43 0 0 0
SMALL
GASTEIGER

@<TRIPOS>ATOM
      1 C          63.3708   89.4483   13.0113 C.3     1  UNL1        0.1412
      2 N          62.3088   89.6359   11.9687 N.3     1  UNL1       -0.2630
      3 C          61.0727   90.3553   12.4210 C.3     1  UNL1        0.0742
      4 C          59.8457   90.6958   11.6280 C.3     1  UNL1        0.0347
      5 C          59.5520   90.4009   10.1870 C.3     1  UNL1        0.0735
      6 N          60.4125   89.6928    9.1829 N.3     1  UNL1       -0.2727
      7 C          61.7793   89.1046    9.3720 C.3     1  UNL1        0.0896
      8 C          62.6232   89.0793   10.6119 C.3     1  UNL1        0.0902
      9 C          59.8290   89.5546    7.8080 C.3     1  UNL1        0.0575
     10 C          59.7993   90.4116    6.5773 C.3     1  UNL1        0.0160
     11 C          59.0038   89.3591    5.8635 C.3     1  UNL1        0.0028
     12 C          59.0335   88.5021    7.0942 C.3     1  UNL1        0.0160
     13 C          64.3989   85.3129   14.4574 C.ar    1  UNL1       -0.0062
     14 C          64.8578   86.5135   15.2307 C.ar    1  UNL1       -0.0032
     15 C          64.5151   87.8920   14.7487 C.ar    1  UNL1       -0.0028
     16 C          63.7135   88.0698   13.4933 C.ar    1  UNL1       -0.0005
     17 C          63.2546   86.8692   12.7201 C.ar    1  UNL1       -0.0028
     18 C          63.5974   85.4908   13.2022 C.ar    1  UNL1       -0.0032
     19 C          64.7417   83.9344   14.9395 C.3     1  UNL1        0.0992
     20 C          61.2994   79.2715   13.3879 C.3     1  UNL1        0.0897
     21 N          62.1600   80.4372   13.7758 N.3     1  UNL1       -0.2691
     22 C          61.5614   81.5995   14.5112 C.3     1  UNL1        0.0897
     23 C          62.4219   82.7653   14.8991 C.3     1  UNL1        0.0899
     24 N          63.8811   82.7687   14.5516 N.3     1  UNL1       -0.2665
     25 C          64.4797   81.6065   13.8162 C.3     1  UNL1        0.0899
     26 C          63.6192   80.4408   13.4283 C.3     1  UNL1        0.0897
     27 C          64.0901   90.6393   13.5719 C.ar    1  UNL1        0.1798
     28 N          64.2399   90.9747   15.0262 N.ar    1  UNL1       -0.1110
     29 N          65.0282   92.2466   15.1297 N.ar    1  UNL1       -0.0229
     30 N          65.3656   92.6973   13.7394 N.ar    1  UNL1       -0.0428
     31 N          64.7857   91.7039   12.7766 N.ar    1  UNL1       -0.2108
     32 C          64.8843   91.7645   11.2811 C.3     1  UNL1        0.1570
     33 C          65.8750   92.6845   10.6314 C.ar    1  UNL1        0.0022
     34 C          67.1826   92.1460   10.1310 C.ar    1  UNL1       -0.0023
     35 C          68.1733   93.0659    9.4814 C.ar    1  UNL1       -0.0003
     36 C          67.8564   94.5245    9.3320 C.ar    1  UNL1       -0.0000
     37 C          66.5489   95.0631    9.8323 C.ar    1  UNL1       -0.0003
     38 C          65.5582   94.1430   10.4820 C.ar    1  UNL1       -0.0023
@<TRIPOS>BOND
     1    20    21    1
     2    21    22    1
     3    22    23    1
     4    23    24    1
     5    24    19    1
     6    19    13    1
     7    13    14   ar
     8    14    15   ar
     9    15    16   ar
    10    16     1    1
    11     1    27    1
    12    27    28   ar
    13    28    29   ar
    14    29    30   ar
    15    30    31   ar
    16    31    32    1
    17    32    33    1
    18    33    34   ar
    19    34    35   ar
    20    35    36   ar
    21    36    37   ar
    22    37    38   ar
    23     1     2    1
    24     2     3    1
    25     3     4    1
    26     4     5    1
    27     5     6    1
    28     6     9    1
    29     9    10    1
    30    10    11    1
    31    11    12    1
    32     6     7    1
    33     7     8    1
    34    16    17   ar
    35    17    18   ar
    36    24    25    1
    37    25    26    1
    38    26    21    1
    39    18    13   ar
    40    31    27   ar
    41    38    33   ar
    42     8     2    1
    43    12     9    1
