@<TRIPOS>MOLECULE
*****
 29 32 0 0 0
SMALL
GASTEIGER

@<TRIPOS>ATOM
      1 N          65.3946   92.0273   12.5402 N.pl3   1  UNL1       -0.3041
      2 C          66.0993   91.6224   13.8009 C.3     1  UNL1        0.1123
      3 C          65.6380   90.4160   14.5637 C.3     1  UNL1        0.1149
      4 N          64.4719   89.6146   14.0659 N.pl3   1  UNL1       -0.2777
      5 C          63.7672   90.0194   12.8052 C.3     1  UNL1        0.0953
      6 C          62.6011   89.2180   12.3073 C.3     1  UNL1        0.0233
      7 C          64.2285   91.2258   12.0424 C.3     1  UNL1        0.1106
      8 C          64.0106   88.4082   14.8287 C.ar    1  UNL1        0.2035
      9 N          64.0505   87.0537   14.1855 N.ar    1  UNL1       -0.2133
     10 C          63.5892   85.8473   14.9483 C.ar    1  UNL1        0.1065
     11 C          63.0880   85.9955   16.3543 C.ar    1  UNL1        0.0815
     12 C          63.0482   87.3499   16.9975 C.ar    1  UNL1        0.2646
     13 O          62.5470   87.4981   18.4035 O.2     1  UNL1       -0.2668
     14 N          63.5095   88.5563   16.2346 N.ar    1  UNL1       -0.2667
     15 C          63.4696   89.9109   16.8779 C.3     1  UNL1        0.1363
     16 C          63.6291   84.4928   14.3051 C.ar    1  UNL1        0.1024
     17 C          62.7197   83.4040   14.7924 C.ar    1  UNL1        0.0414
     18 C          62.7596   82.0495   14.1491 C.ar    1  UNL1        0.1023
     19 N          63.7089   81.7838   13.0186 N.ar    1  UNL1       -0.2224
     20 C          64.6184   82.8726   12.5313 C.ar    1  UNL1        0.1989
     21 N          64.5784   84.2271   13.1745 N.ar    1  UNL1       -0.2224
     22 C          66.7785   95.6464   10.2518 C.ar    1  UNL1        0.1388
     23 C          66.4941   95.7514   11.7208 C.ar    1  UNL1        0.0382
     24 C          66.0328   94.5451   12.4836 C.ar    1  UNL1        0.0176
     25 C          65.8559   93.2336   11.7774 C.ar    1  UNL1        0.0481
     26 C          66.1402   93.1286   10.3084 C.ar    1  UNL1        0.0176
     27 C          66.6015   94.3349    9.5456 C.ar    1  UNL1        0.0382
     28 C          67.1917   96.8557    7.9898 C.3     1  UNL1        0.2525
     29 O          67.2398   96.8527    9.4890 O.3     1  UNL1       -0.4714
@<TRIPOS>BOND
     1    28    29    1
     2    29    22    1
     3    22    23   ar
     4    23    24   ar
     5    24    25   ar
     6    25     1    1
     7     1     2    1
     8     2     3    1
     9     3     4    1
    10     4     8    1
    11     8     9   ar
    12     9    10   ar
    13    10    16    1
    14    16    17   ar
    15    17    18   ar
    16    18    19   ar
    17    19    20   ar
    18    20    21   ar
    19    10    11   ar
    20    11    12   ar
    21    12    13    2
    22    12    14   ar
    23    14    15    1
    24     4     5    1
    25     5     6    1
    26     5     7    1
    27    25    26   ar
    28    26    27   ar
    29    27    22   ar
    30     7     1    1
    31    14     8   ar
    32    21    16   ar
@<TRIPOS>MOLECULE
*****
 29 32 0 0 0
SMALL
GASTEIGER

@<TRIPOS>ATOM
      1 N          63.5065   85.0251   12.9498 N.pl3   1  UNL1       -0.3041
      2 C          64.2916   85.3510   14.1856 C.3     1  UNL1        0.1123
      3 C          64.5175   86.7818   14.5751 C.3     1  UNL1        0.1149
      4 N          63.9581   87.8867   13.7288 N.pl3   1  UNL1       -0.2777
      5 C          63.1730   87.5608   12.4930 C.3     1  UNL1        0.0953
      6 C          62.6136   88.6658   11.6467 C.3     1  UNL1        0.0233
      7 C          62.9472   86.1300   12.1035 C.3     1  UNL1        0.1106
      8 C          64.1840   89.3176   14.1184 C.ar    1  UNL1        0.2035
      9 N          64.8032   90.2722   13.1410 N.ar    1  UNL1       -0.2133
     10 C          65.0291   91.7030   13.5306 C.ar    1  UNL1        0.1065
     11 C          64.6356   92.1792   14.8974 C.ar    1  UNL1        0.0815
     12 C          64.0164   91.2246   15.8748 C.ar    1  UNL1        0.2646
     13 O          63.6229   91.7008   17.2417 O.2     1  UNL1       -0.2668
     14 N          63.7906   89.7938   15.4852 N.ar    1  UNL1       -0.2667
     15 C          63.1713   88.8392   16.4627 C.3     1  UNL1        0.1363
     16 C          65.6483   92.6576   12.5531 C.ar    1  UNL1        0.1024
     17 C          66.0222   92.1866   11.1790 C.ar    1  UNL1        0.0414
     18 C          66.6415   93.1412   10.2016 C.ar    1  UNL1        0.1023
     19 N          66.8869   94.5668   10.5984 N.ar    1  UNL1       -0.2224
     20 C          66.5130   95.0378   11.9726 C.ar    1  UNL1        0.1989
     21 N          65.8938   94.0832   12.9500 N.ar    1  UNL1       -0.2224
     22 C          62.8290   80.7326   11.7812 C.ar    1  UNL1        0.1388
     23 C          63.4887   81.6764   10.8200 C.ar    1  UNL1        0.0382
     24 C          63.7145   83.1072   11.2095 C.ar    1  UNL1        0.0176
     25 C          63.2806   83.5943   12.5602 C.ar    1  UNL1        0.0481
     26 C          62.6209   82.6504   13.5214 C.ar    1  UNL1        0.0176
     27 C          62.3951   81.2196   13.1319 C.ar    1  UNL1        0.0382
     28 C          62.8103   78.8698    9.9702 C.3     1  UNL1        0.2525
     29 O          62.6032   79.3018   11.3916 O.3     1  UNL1       -0.4714
@<TRIPOS>BOND
     1    28    29    1
     2    29    22    1
     3    22    23   ar
     4    23    24   ar
     5    24    25   ar
     6    25     1    1
     7     1     2    1
     8     2     3    1
     9     3     4    1
    10     4     8    1
    11     8     9   ar
    12     9    10   ar
    13    10    16    1
    14    16    17   ar
    15    17    18   ar
    16    18    19   ar
    17    19    20   ar
    18    20    21   ar
    19    10    11   ar
    20    11    12   ar
    21    12    13    2
    22    12    14   ar
    23    14    15    1
    24     4     5    1
    25     5     6    1
    26     5     7    1
    27    25    26   ar
    28    26    27   ar
    29    27    22   ar
    30     7     1    1
    31    14     8   ar
    32    21    16   ar
@<TRIPOS>MOLECULE
*****
 29 32 0 0 0
SMALL
GASTEIGER

@<TRIPOS>ATOM
      1 N          63.4294   84.7115   12.7277 N.pl3   1  UNL1       -0.3041
      2 C          62.6826   85.8110   12.0326 C.3     1  UNL1        0.1123
      3 C          62.8757   87.2357   12.4604 C.3     1  UNL1        0.1149
      4 N          63.8157   87.5608   13.5832 N.pl3   1  UNL1       -0.2777
      5 C          64.5625   86.4613   14.2783 C.3     1  UNL1        0.0953
      6 C          65.5025   86.7863   15.4012 C.3     1  UNL1        0.0233
      7 C          64.3694   85.0366   13.8505 C.3     1  UNL1        0.1106
      8 C          64.0088   88.9855   14.0109 C.ar    1  UNL1        0.2035
      9 N          64.5669   89.9892   13.0460 N.ar    1  UNL1       -0.2133
     10 C          64.7600   91.4139   13.4738 C.ar    1  UNL1        0.1065
     11 C          64.3950   91.8349   14.8665 C.ar    1  UNL1        0.0815
     12 C          63.8370   90.8312   15.8314 C.ar    1  UNL1        0.2646
     13 O          63.4720   91.2521   17.2241 O.2     1  UNL1       -0.2668
     14 N          63.6439   89.4065   15.4036 N.ar    1  UNL1       -0.2667
     15 C          63.0857   88.4028   16.3686 C.3     1  UNL1        0.1363
     16 C          65.3181   92.4176   12.5088 C.ar    1  UNL1        0.1024
     17 C          65.3851   92.0945   11.0456 C.ar    1  UNL1        0.0414
     18 C          65.9432   93.0982   10.0806 C.ar    1  UNL1        0.1023
     19 N          66.4343   94.4251   10.5789 N.ar    1  UNL1       -0.2224
     20 C          66.3673   94.7482   12.0422 C.ar    1  UNL1        0.1989
     21 N          65.8092   93.7445   13.0071 N.ar    1  UNL1       -0.2224
     22 C          62.8501   80.4374   11.4444 C.ar    1  UNL1        0.1388
     23 C          62.4328   80.8711   12.8184 C.ar    1  UNL1        0.0382
     24 C          62.6260   82.2958   13.2461 C.ar    1  UNL1        0.0176
     25 C          63.2363   83.2868   12.2999 C.ar    1  UNL1        0.0481
     26 C          63.6536   82.8531   10.9260 C.ar    1  UNL1        0.0176
     27 C          63.4604   81.4284   10.4982 C.ar    1  UNL1        0.0382
     28 C          62.8878   78.6209    9.5873 C.3     1  UNL1        0.2525
     29 O          62.6570   79.0127   11.0167 O.3     1  UNL1       -0.4714
@<TRIPOS>BOND
     1    28    29    1
     2    29    22    1
     3    22    23   ar
     4    23    24   ar
     5    24    25   ar
     6    25     1    1
     7     1     2    1
     8     2     3    1
     9     3     4    1
    10     4     8    1
    11     8     9   ar
    12     9    10   ar
    13    10    16    1
    14    16    17   ar
    15    17    18   ar
    16    18    19   ar
    17    19    20   ar
    18    20    21   ar
    19    10    11   ar
    20    11    12   ar
    21    12    13    2
    22    12    14   ar
    23    14    15    1
    24     4     5    1
    25     5     6    1
    26     5     7    1
    27    25    26   ar
    28    26    27   ar
    29    27    22   ar
    30     7     1    1
    31    14     8   ar
    32    21    16   ar
