@<TRIPOS>MOLECULE
*****
 38 44 0 0 0
SMALL
GASTEIGER

@<TRIPOS>ATOM
      1 C          62.1943   92.9076    0.7468 C.2     1  UNL1       -0.0378
      2 C          62.9748   92.0089    1.6596 C.2     1  UNL1       -0.0080
      3 C          62.3596   91.5211    2.9378 C.2     1  UNL1        0.0022
      4 C          60.9640   91.9319    3.3030 C.2     1  UNL1        0.0350
      5 C          60.1010   91.6119    4.4875 C.2     1  UNL1        0.1040
      6 N          58.7872   92.3128    4.3067 N.2     1  UNL1       -0.1483
      7 N          58.8382   93.0659    3.0105 N.2     1  UNL1       -0.1520
      8 C          60.1835   92.8306    2.3902 C.2     1  UNL1        0.0860
      9 C          60.7986   93.3184    1.1121 C.3     1  UNL1        0.0697
     10 O          64.2493   94.4949   -3.8719 O.2     1  UNL1       -0.2744
     11 C          64.4615   94.8907   -2.4407 C.2     1  UNL1        0.2293
     12 N          65.4105   95.9428   -1.9484 N.am    1  UNL1       -0.2839
     13 C          65.2975   96.0063   -0.4539 C.ar    1  UNL1        0.0468
     14 C          65.9907   96.8554    0.5698 C.ar    1  UNL1        0.0167
     15 C          65.6651   96.6918    2.0250 C.ar    1  UNL1        0.0309
     16 C          64.6462   95.6789    2.4561 C.ar    1  UNL1        0.1399
     17 F          64.3206   95.5152    3.9112 F       1  UNL1       -0.2042
     18 C          63.9530   94.8297    1.4323 C.ar    1  UNL1        0.0270
     19 C          64.2786   94.9934   -0.0228 C.ar    1  UNL1        0.0014
     20 C          63.7619   94.3039   -1.2507 C.3     1  UNL1        0.0928
     21 C          62.9225   93.3320   -2.0257 C.3     1  UNL1        0.0179
     22 C          62.8094   93.3955   -0.5313 C.3     1  UNL1        0.0315
     23 H          66.0034   96.4948   -2.5078 H       1  UNL1        0.1549
     24 C          60.4845   90.7435    5.6488 C.2     1  UNL1        0.0209
     25 C          59.4497   89.8920    6.3226 C.2     1  UNL1        0.0016
     26 C          59.8331   89.0235    7.4840 C.ar    1  UNL1        0.0000
     27 C          59.4996   87.5612    7.4692 C.ar    1  UNL1       -0.0003
     28 C          59.8830   86.6926    8.6305 C.ar    1  UNL1       -0.0029
     29 C          60.6000   87.2865    9.8066 C.ar    1  UNL1       -0.0061
     30 C          60.9335   88.7489    9.8214 C.ar    1  UNL1       -0.0029
     31 C          60.5501   89.6174    8.6601 C.ar    1  UNL1       -0.0003
     32 C          60.9834   86.4180   10.9679 C.3     1  UNL1        0.0993
     33 N          62.0757   85.4014   10.8157 N.3     1  UNL1       -0.2646
     34 C          62.5934   84.6709   12.0192 C.3     1  UNL1        0.1049
     35 C          63.6858   83.6543   11.8672 C.3     1  UNL1        0.1595
     36 O          64.2606   83.3682   10.5115 O.3     1  UNL1       -0.3508
     37 C          63.7430   84.0987    9.3080 C.3     1  UNL1        0.1595
     38 C          62.6506   85.1153    9.4601 C.3     1  UNL1        0.1049
@<TRIPOS>BOND
     1    10    11    2
     2    11    12   am
     3    12    13    1
     4    13    14   ar
     5    14    15   ar
     6    15    16   ar
     7    16    17    1
     8    16    18   ar
     9    18    19   ar
    10    19    20    1
    11    20    21    1
    12    21    22    1
    13    22     1    1
    14     1     2    2
    15     2     3    1
    16     3     4    2
    17     4     5    1
    18     5    24    1
    19    24    25    2
    20    25    26    1
    21    26    27   ar
    22    27    28   ar
    23    28    29   ar
    24    29    32    1
    25    32    33    1
    26    33    34    1
    27    34    35    1
    28    35    36    1
    29    36    37    1
    30    37    38    1
    31    29    30   ar
    32    30    31   ar
    33     5     6    2
    34     6     7    1
    35     7     8    2
    36     8     9    1
    37    20    11    1
    38     9     1    1
    39    19    13   ar
    40    22    20    1
    41     8     4    1
    42    31    26   ar
    43    38    33    1
    44    12    23    1
@<TRIPOS>MOLECULE
*****
 38 44 0 0 0
SMALL
GASTEIGER

@<TRIPOS>ATOM
      1 C          61.9942   85.3886   10.8327 C.2     1  UNL1       -0.0378
      2 C          62.3475   85.8043    9.4354 C.2     1  UNL1       -0.0080
      3 C          61.8314   87.1010    8.8856 C.2     1  UNL1        0.0022
      4 C          60.9620   87.9819    9.7330 C.2     1  UNL1        0.0350
      5 C          60.3104   89.3061    9.4646 C.2     1  UNL1        0.1040
      6 N          59.5543   89.7087   10.6960 N.2     1  UNL1       -0.1483
      7 N          59.7387   88.6334   11.7254 N.2     1  UNL1       -0.1520
      8 C          60.6087   87.5662   11.1302 C.2     1  UNL1        0.0860
      9 C          61.1247   86.2696   11.6801 C.3     1  UNL1        0.0697
     10 O          63.7178   80.7086   12.6221 O.2     1  UNL1       -0.2744
     11 C          63.8977   82.1299   13.0666 C.2     1  UNL1        0.2293
     12 N          64.6964   82.5890   14.2504 N.am    1  UNL1       -0.2839
     13 C          64.6028   84.0845   14.3209 C.ar    1  UNL1        0.0468
     14 C          65.1868   85.0827   15.2760 C.ar    1  UNL1        0.0167
     15 C          64.9144   86.5462   15.0909 C.ar    1  UNL1        0.0309
     16 C          64.0579   87.0112   13.9507 C.ar    1  UNL1        0.1399
     17 F          63.7855   88.4746   13.7655 F       1  UNL1       -0.2042
     18 C          63.4739   86.0129   12.9955 C.ar    1  UNL1        0.0270
     19 C          63.7464   84.5495   13.1807 C.ar    1  UNL1        0.0014
     20 C          63.3106   83.3415   12.4055 C.3     1  UNL1        0.0928
     21 C          62.6038   82.5966   11.3121 C.3     1  UNL1        0.0179
     22 C          62.5103   84.0920   11.3826 C.3     1  UNL1        0.0315
     23 H          65.1945   82.0104   14.8720 H       1  UNL1        0.1549
     24 C          60.3992   90.0899    8.1888 C.2     1  UNL1        0.0209
     25 C          59.3898   89.8697    7.1014 C.2     1  UNL1        0.0016
     26 C          59.4786   90.6535    5.8255 C.ar    1  UNL1        0.0000
     27 C          58.2382   91.2354    5.2150 C.ar    1  UNL1       -0.0003
     28 C          58.3269   92.0193    3.9392 C.ar    1  UNL1       -0.0029
     29 C          59.6560   92.2211    3.2739 C.ar    1  UNL1       -0.0061
     30 C          60.8964   91.6392    3.8844 C.ar    1  UNL1       -0.0029
     31 C          60.8077   90.8554    5.1602 C.ar    1  UNL1       -0.0003
     32 C          59.7447   93.0049    1.9981 C.3     1  UNL1        0.0993
     33 N          61.0348   93.6652    1.6115 N.3     1  UNL1       -0.2646
     34 C          61.2068   95.1434    1.8000 C.3     1  UNL1        0.1049
     35 C          62.4970   95.8037    1.4134 C.3     1  UNL1        0.1595
     36 O          63.6153   94.9858    0.8385 O.3     1  UNL1       -0.3508
     37 C          63.4433   93.5077    0.6501 C.3     1  UNL1        0.1595
     38 C          62.1531   92.8473    1.0366 C.3     1  UNL1        0.1049
@<TRIPOS>BOND
     1    10    11    2
     2    11    12   am
     3    12    13    1
     4    13    14   ar
     5    14    15   ar
     6    15    16   ar
     7    16    17    1
     8    16    18   ar
     9    18    19   ar
    10    19    20    1
    11    20    21    1
    12    21    22    1
    13    22     1    1
    14     1     2    2
    15     2     3    1
    16     3     4    2
    17     4     5    1
    18     5    24    1
    19    24    25    2
    20    25    26    1
    21    26    27   ar
    22    27    28   ar
    23    28    29   ar
    24    29    32    1
    25    32    33    1
    26    33    34    1
    27    34    35    1
    28    35    36    1
    29    36    37    1
    30    37    38    1
    31    29    30   ar
    32    30    31   ar
    33     5     6    2
    34     6     7    1
    35     7     8    2
    36     8     9    1
    37    20    11    1
    38     9     1    1
    39    19    13   ar
    40    22    20    1
    41     8     4    1
    42    31    26   ar
    43    38    33    1
    44    12    23    1
@<TRIPOS>MOLECULE
*****
 38 44 0 0 0
SMALL
GASTEIGER

@<TRIPOS>ATOM
      1 C          62.5136   93.1912    1.3503 C.2     1  UNL1       -0.0378
      2 C          63.3124   92.2647    2.2183 C.2     1  UNL1       -0.0080
      3 C          62.6621   91.5841    3.3863 C.2     1  UNL1        0.0022
      4 C          61.2132   91.8301    3.6863 C.2     1  UNL1        0.0350
      5 C          60.3074   91.3052    4.7605 C.2     1  UNL1        0.1040
      6 N          58.9488   91.9073    4.5564 N.2     1  UNL1       -0.1483
      7 N          59.0150   92.8044    3.3561 N.2     1  UNL1       -0.1520
      8 C          60.4144   92.7567    2.8183 C.2     1  UNL1        0.0860
      9 C          61.0646   93.4373    1.6503 C.3     1  UNL1        0.0697
     10 O          64.9776   95.6296   -2.6569 O.2     1  UNL1       -0.2744
     11 C          63.6355   94.9801   -2.4934 C.2     1  UNL1        0.2293
     12 N          62.5766   94.8662   -3.5497 N.am    1  UNL1       -0.2839
     13 C          61.4032   94.1462   -2.9541 C.ar    1  UNL1        0.0468
     14 C          60.0741   93.7493   -3.5248 C.ar    1  UNL1        0.0167
     15 C          59.0784   93.0213   -2.6710 C.ar    1  UNL1        0.0309
     16 C          59.4121   92.6903   -1.2465 C.ar    1  UNL1        0.1399
     17 F          58.4166   91.9623   -0.3927 F       1  UNL1       -0.2042
     18 C          60.7413   93.0872   -0.6759 C.ar    1  UNL1        0.0270
     19 C          61.7369   93.8152   -1.5296 C.ar    1  UNL1        0.0014
     20 C          63.1165   94.3306   -1.2449 C.3     1  UNL1        0.0928
     21 C          64.3371   94.5918   -0.4132 C.3     1  UNL1        0.0179
     22 C          63.1638   93.8718    0.1824 C.3     1  UNL1        0.0315
     23 H          62.6406   95.2045   -4.4720 H       1  UNL1        0.1549
     24 C          60.6926   90.3464    5.8479 C.2     1  UNL1        0.0209
     25 C          59.6560   89.8495    6.8115 C.2     1  UNL1        0.0016
     26 C          60.0412   88.8908    7.8990 C.ar    1  UNL1        0.0000
     27 C          60.7488   89.3906    9.1235 C.ar    1  UNL1       -0.0003
     28 C          61.1339   88.4319   10.2110 C.ar    1  UNL1       -0.0029
     29 C          60.8114   86.9734   10.0738 C.ar    1  UNL1       -0.0061
     30 C          60.1038   86.4736    8.8493 C.ar    1  UNL1       -0.0029
     31 C          59.7186   87.4323    7.7618 C.ar    1  UNL1       -0.0003
     32 C          61.1966   86.0147   11.1613 C.3     1  UNL1        0.0993
     33 N          62.3369   85.0630   10.9529 N.3     1  UNL1       -0.2646
     34 C          62.9281   84.3331   12.1226 C.3     1  UNL1        0.1049
     35 C          64.0685   83.3813   11.9143 C.3     1  UNL1        0.1595
     36 O          64.6179   83.1593   10.5362 O.3     1  UNL1       -0.3508
     37 C          64.0268   83.8890    9.3666 C.3     1  UNL1        0.1595
     38 C          62.8864   84.8409    9.5749 C.3     1  UNL1        0.1049
@<TRIPOS>BOND
     1    10    11    2
     2    11    12   am
     3    12    13    1
     4    13    14   ar
     5    14    15   ar
     6    15    16   ar
     7    16    17    1
     8    16    18   ar
     9    18    19   ar
    10    19    20    1
    11    20    21    1
    12    21    22    1
    13    22     1    1
    14     1     2    2
    15     2     3    1
    16     3     4    2
    17     4     5    1
    18     5    24    1
    19    24    25    2
    20    25    26    1
    21    26    27   ar
    22    27    28   ar
    23    28    29   ar
    24    29    32    1
    25    32    33    1
    26    33    34    1
    27    34    35    1
    28    35    36    1
    29    36    37    1
    30    37    38    1
    31    29    30   ar
    32    30    31   ar
    33     5     6    2
    34     6     7    1
    35     7     8    2
    36     8     9    1
    37    20    11    1
    38     9     1    1
    39    19    13   ar
    40    22    20    1
    41     8     4    1
    42    31    26   ar
    43    38    33    1
    44    12    23    1
@<TRIPOS>MOLECULE
*****
 38 44 0 0 0
SMALL
GASTEIGER

@<TRIPOS>ATOM
      1 C          62.0463   85.3646   10.7352 C.2     1  UNL1       -0.0378
      2 C          62.6308   85.7360    9.4046 C.2     1  UNL1       -0.0080
      3 C          62.1965   86.9984    8.7206 C.2     1  UNL1        0.0022
      4 C          61.1777   87.8894    9.3672 C.2     1  UNL1        0.0350
      5 C          60.5605   89.1865    8.9355 C.2     1  UNL1        0.1040
      6 N          59.5945   89.6169    9.9993 N.2     1  UNL1       -0.1483
      7 N          59.6147   88.5857   11.0884 N.2     1  UNL1       -0.1520
      8 C          60.5932   87.5180   10.6978 C.2     1  UNL1        0.0860
      9 C          61.0275   86.2557   11.3818 C.3     1  UNL1        0.0697
     10 O          63.4890   80.7967   12.9995 O.2     1  UNL1       -0.2744
     11 C          63.6823   82.2433   13.3456 C.2     1  UNL1        0.2293
     12 N          64.4095   82.7732   14.5457 N.am    1  UNL1       -0.2839
     13 C          64.3590   84.2715   14.4941 C.ar    1  UNL1        0.0468
     14 C          64.9056   85.3263   15.4098 C.ar    1  UNL1        0.0167
     15 C          64.6938   86.7773   15.0935 C.ar    1  UNL1        0.0309
     16 C          63.9354   87.1733   13.8615 C.ar    1  UNL1        0.1399
     17 F          63.7236   88.6242   13.5452 F       1  UNL1       -0.2042
     18 C          63.3887   86.1184   12.9458 C.ar    1  UNL1        0.0270
     19 C          63.6005   84.6676   13.2621 C.ar    1  UNL1        0.0014
     20 C          63.1823   83.4141   12.5523 C.3     1  UNL1        0.0928
     21 C          62.5311   82.6041   11.4707 C.3     1  UNL1        0.0179
     22 C          62.4806   84.1023   11.4191 C.3     1  UNL1        0.0315
     23 H          64.8437   82.2326   15.2445 H       1  UNL1        0.1549
     24 C          60.8571   89.9239    7.6634 C.2     1  UNL1        0.0209
     25 C          59.7608   90.1813    6.6726 C.2     1  UNL1        0.0016
     26 C          60.0574   90.9186    5.4004 C.ar    1  UNL1        0.0000
     27 C          58.9764   91.7050    4.7199 C.ar    1  UNL1       -0.0003
     28 C          59.2729   92.4423    3.4477 C.ar    1  UNL1       -0.0029
     29 C          60.6503   92.3933    2.8561 C.ar    1  UNL1       -0.0061
     30 C          61.7313   91.6069    3.5366 C.ar    1  UNL1       -0.0029
     31 C          61.4349   90.8695    4.8088 C.ar    1  UNL1       -0.0003
     32 C          60.9468   93.1306    1.5839 C.3     1  UNL1        0.0993
     33 N          59.8491   93.3937    0.5962 N.3     1  UNL1       -0.2646
     34 C          59.3152   92.2742   -0.2475 C.3     1  UNL1        0.1049
     35 C          58.2174   92.5372   -1.2353 C.3     1  UNL1        0.1595
     36 O          57.6536   93.9197   -1.3794 O.3     1  UNL1       -0.3508
     37 C          58.1875   95.0391   -0.5357 C.3     1  UNL1        0.1595
     38 C          59.2852   94.7761    0.4521 C.3     1  UNL1        0.1049
@<TRIPOS>BOND
     1    10    11    2
     2    11    12   am
     3    12    13    1
     4    13    14   ar
     5    14    15   ar
     6    15    16   ar
     7    16    17    1
     8    16    18   ar
     9    18    19   ar
    10    19    20    1
    11    20    21    1
    12    21    22    1
    13    22     1    1
    14     1     2    2
    15     2     3    1
    16     3     4    2
    17     4     5    1
    18     5    24    1
    19    24    25    2
    20    25    26    1
    21    26    27   ar
    22    27    28   ar
    23    28    29   ar
    24    29    32    1
    25    32    33    1
    26    33    34    1
    27    34    35    1
    28    35    36    1
    29    36    37    1
    30    37    38    1
    31    29    30   ar
    32    30    31   ar
    33     5     6    2
    34     6     7    1
    35     7     8    2
    36     8     9    1
    37    20    11    1
    38     9     1    1
    39    19    13   ar
    40    22    20    1
    41     8     4    1
    42    31    26   ar
    43    38    33    1
    44    12    23    1
@<TRIPOS>MOLECULE
*****
 38 44 0 0 0
SMALL
GASTEIGER

@<TRIPOS>ATOM
      1 C          62.0024   87.5199   11.2119 C.2     1  UNL1       -0.0378
      2 C          62.5082   88.7561   10.5293 C.2     1  UNL1       -0.0080
      3 C          61.7836   89.3033    9.3353 C.2     1  UNL1        0.0022
      4 C          60.5532   88.6143    8.8240 C.2     1  UNL1        0.0350
      5 C          59.6361   88.9185    7.6767 C.2     1  UNL1        0.1040
      6 N          58.5634   87.8703    7.6502 N.2     1  UNL1       -0.1483
      7 N          58.8177   86.9183    8.7812 N.2     1  UNL1       -0.1520
      8 C          60.0474   87.3781    9.5066 C.2     1  UNL1        0.0860
      9 C          60.7720   86.8309   10.7005 C.3     1  UNL1        0.0697
     10 O          64.5096   85.7585   15.5346 O.2     1  UNL1       -0.2744
     11 C          64.2943   85.2127   14.1541 C.2     1  UNL1        0.2293
     12 N          64.7998   83.8985   13.6369 N.am    1  UNL1       -0.2839
     13 C          64.3536   83.7588   12.2116 C.ar    1  UNL1        0.0468
     14 C          64.5577   82.6723   11.1979 C.ar    1  UNL1        0.0167
     15 C          63.9807   82.8135    9.8205 C.ar    1  UNL1        0.0309
     16 C          63.1996   84.0413    9.4569 C.ar    1  UNL1        0.1399
     17 F          62.6225   84.1826    8.0796 F       1  UNL1       -0.2042
     18 C          62.9954   85.1279   10.4706 C.ar    1  UNL1        0.0270
     19 C          63.5725   84.9867   11.8480 C.ar    1  UNL1        0.0014
     20 C          63.5358   85.8852   13.0486 C.3     1  UNL1        0.0928
     21 C          63.1731   87.1124   13.8311 C.3     1  UNL1        0.0179
     22 C          62.7270   86.9727   12.4059 C.3     1  UNL1        0.0315
     23 H          65.3310   83.2428   14.1439 H       1  UNL1        0.1549
     24 C          59.7683   90.0689    6.7232 C.2     1  UNL1        0.0209
     25 C          60.5803   89.9159    5.4713 C.2     1  UNL1        0.0016
     26 C          60.7127   91.0663    4.5178 C.ar    1  UNL1        0.0000
     27 C          59.5731   92.0245    4.3360 C.ar    1  UNL1       -0.0003
     28 C          59.7053   93.1749    3.3825 C.ar    1  UNL1       -0.0029
     29 C          60.9772   93.3670    2.6109 C.ar    1  UNL1       -0.0061
     30 C          62.1168   92.4087    2.7927 C.ar    1  UNL1       -0.0029
     31 C          61.9845   91.2584    3.7462 C.ar    1  UNL1       -0.0003
     32 C          61.1094   94.5174    1.6574 C.3     1  UNL1        0.0993
     33 N          62.3872   94.7192    0.8982 N.3     1  UNL1       -0.2646
     34 C          62.5778   94.0632   -0.4372 C.3     1  UNL1        0.1049
     35 C          63.8556   94.2651   -1.1965 C.3     1  UNL1        0.1595
     36 O          64.9428   95.1230   -0.6203 O.3     1  UNL1       -0.3508
     37 C          64.7522   95.7789    0.7151 C.3     1  UNL1        0.1595
     38 C          63.4744   95.5771    1.4744 C.3     1  UNL1        0.1049
@<TRIPOS>BOND
     1    10    11    2
     2    11    12   am
     3    12    13    1
     4    13    14   ar
     5    14    15   ar
     6    15    16   ar
     7    16    17    1
     8    16    18   ar
     9    18    19   ar
    10    19    20    1
    11    20    21    1
    12    21    22    1
    13    22     1    1
    14     1     2    2
    15     2     3    1
    16     3     4    2
    17     4     5    1
    18     5    24    1
    19    24    25    2
    20    25    26    1
    21    26    27   ar
    22    27    28   ar
    23    28    29   ar
    24    29    32    1
    25    32    33    1
    26    33    34    1
    27    34    35    1
    28    35    36    1
    29    36    37    1
    30    37    38    1
    31    29    30   ar
    32    30    31   ar
    33     5     6    2
    34     6     7    1
    35     7     8    2
    36     8     9    1
    37    20    11    1
    38     9     1    1
    39    19    13   ar
    40    22    20    1
    41     8     4    1
    42    31    26   ar
    43    38    33    1
    44    12    23    1
@<TRIPOS>MOLECULE
*****
 38 44 0 0 0
SMALL
GASTEIGER

@<TRIPOS>ATOM
      1 C          61.8807   86.9521   10.6722 C.2     1  UNL1       -0.0378
      2 C          62.4785   88.1658   10.0246 C.2     1  UNL1       -0.0080
      3 C          61.7410   88.8683    8.9234 C.2     1  UNL1        0.0022
      4 C          60.4058   88.3571    8.4699 C.2     1  UNL1        0.0350
      5 C          59.4524   88.8372    7.4160 C.2     1  UNL1        0.1040
      6 N          58.2653   87.9202    7.4123 N.2     1  UNL1       -0.1483
      7 N          58.4851   86.8734    8.4639 N.2     1  UNL1       -0.1520
      8 C          59.8080   87.1434    9.1175 C.2     1  UNL1        0.0860
      9 C          60.5454   86.4408   10.2187 C.3     1  UNL1        0.0697
     10 O          64.4299   84.2887   14.4779 O.2     1  UNL1       -0.2744
     11 C          64.2245   85.7436   14.1764 C.2     1  UNL1        0.2293
     12 N          64.7570   86.8939   14.9785 N.am    1  UNL1       -0.2839
     13 C          64.3122   88.1650   14.3178 C.ar    1  UNL1        0.0468
     14 C          64.5380   89.6074   14.6619 C.ar    1  UNL1        0.0167
     15 C          63.9564   90.6851   13.7957 C.ar    1  UNL1        0.0309
     16 C          63.1490   90.3204   12.5853 C.ar    1  UNL1        0.1399
     17 F          62.5675   91.3980   11.7190 F       1  UNL1       -0.2042
     18 C          62.9232   88.8779   12.2411 C.ar    1  UNL1        0.0270
     19 C          63.5048   87.8003   13.1074 C.ar    1  UNL1        0.0014
     20 C          63.4506   86.3038   13.0200 C.3     1  UNL1        0.0928
     21 C          63.0630   84.9785   12.4341 C.3     1  UNL1        0.0179
     22 C          62.6181   86.2495   11.7734 C.3     1  UNL1        0.0315
     23 H          65.3026   86.8265   15.7952 H       1  UNL1        0.1549
     24 C          59.6511   90.0257    6.5227 C.2     1  UNL1        0.0209
     25 C          60.5099   89.9085    5.2985 C.2     1  UNL1        0.0016
     26 C          60.7087   91.0969    4.4051 C.ar    1  UNL1        0.0000
     27 C          62.0054   91.2759    3.6726 C.ar    1  UNL1       -0.0003
     28 C          62.2043   92.4643    2.7792 C.ar    1  UNL1       -0.0029
     29 C          61.1065   93.4737    2.6184 C.ar    1  UNL1       -0.0061
     30 C          59.8098   93.2947    3.3508 C.ar    1  UNL1       -0.0029
     31 C          59.6109   92.1063    4.2442 C.ar    1  UNL1       -0.0003
     32 C          61.3054   94.6621    1.7250 C.3     1  UNL1        0.0993
     33 N          62.5474   94.7743    0.8915 N.3     1  UNL1       -0.2646
     34 C          62.6174   94.0973   -0.4452 C.3     1  UNL1        0.1049
     35 C          63.8594   94.2095   -1.2788 C.3     1  UNL1        0.1595
     36 O          65.0315   94.9988   -0.7756 O.3     1  UNL1       -0.3508
     37 C          64.9616   95.6758    0.5611 C.3     1  UNL1        0.1595
     38 C          63.7196   95.5636    1.3946 C.3     1  UNL1        0.1049
@<TRIPOS>BOND
     1    10    11    2
     2    11    12   am
     3    12    13    1
     4    13    14   ar
     5    14    15   ar
     6    15    16   ar
     7    16    17    1
     8    16    18   ar
     9    18    19   ar
    10    19    20    1
    11    20    21    1
    12    21    22    1
    13    22     1    1
    14     1     2    2
    15     2     3    1
    16     3     4    2
    17     4     5    1
    18     5    24    1
    19    24    25    2
    20    25    26    1
    21    26    27   ar
    22    27    28   ar
    23    28    29   ar
    24    29    32    1
    25    32    33    1
    26    33    34    1
    27    34    35    1
    28    35    36    1
    29    36    37    1
    30    37    38    1
    31    29    30   ar
    32    30    31   ar
    33     5     6    2
    34     6     7    1
    35     7     8    2
    36     8     9    1
    37    20    11    1
    38     9     1    1
    39    19    13   ar
    40    22    20    1
    41     8     4    1
    42    31    26   ar
    43    38    33    1
    44    12    23    1
@<TRIPOS>MOLECULE
*****
 38 44 0 0 0
SMALL
GASTEIGER

@<TRIPOS>ATOM
      1 C          61.9985   87.5168   11.2019 C.2     1  UNL1       -0.0378
      2 C          62.4845   88.7648   10.5264 C.2     1  UNL1       -0.0080
      3 C          61.7533   89.3053    9.3334 C.2     1  UNL1        0.0022
      4 C          60.5361   88.5978    8.8159 C.2     1  UNL1        0.0350
      5 C          59.6164   88.8917    7.6680 C.2     1  UNL1        0.1040
      6 N          58.5620   87.8253    7.6340 N.2     1  UNL1       -0.1483
      7 N          58.8300   86.8724    8.7610 N.2     1  UNL1       -0.1520
      8 C          60.0501   87.3498    9.4914 C.2     1  UNL1        0.0860
      9 C          60.7813   86.8093   10.6844 C.3     1  UNL1        0.0697
     10 O          64.5294   85.7795   15.5206 O.2     1  UNL1       -0.2744
     11 C          64.3085   85.2271   14.1437 C.2     1  UNL1        0.2293
     12 N          64.8139   83.9115   13.6300 N.am    1  UNL1       -0.2839
     13 C          64.3612   83.7645   12.2075 C.ar    1  UNL1        0.0468
     14 C          64.5625   82.6737   11.1978 C.ar    1  UNL1        0.0167
     15 C          63.9787   82.8076    9.8225 C.ar    1  UNL1        0.0309
     16 C          63.1936   84.0324    9.4571 C.ar    1  UNL1        0.1399
     17 F          62.6098   84.1663    8.0819 F       1  UNL1       -0.2042
     18 C          62.9923   85.1232   10.4668 C.ar    1  UNL1        0.0270
     19 C          63.5762   84.9893   11.8420 C.ar    1  UNL1        0.0014
     20 C          63.5436   85.8932   13.0387 C.3     1  UNL1        0.0928
     21 C          63.1824   87.1233   13.8173 C.3     1  UNL1        0.0179
     22 C          62.7297   86.9763   12.3949 C.3     1  UNL1        0.0315
     23 H          65.3487   83.2591   14.1375 H       1  UNL1        0.1549
     24 C          59.7310   90.0488    6.7204 C.2     1  UNL1        0.0209
     25 C          60.5581   89.9198    5.4757 C.2     1  UNL1        0.0016
     26 C          60.6727   91.0769    4.5280 C.ar    1  UNL1        0.0000
     27 C          61.9336   91.2797    3.7412 C.ar    1  UNL1       -0.0003
     28 C          62.0483   92.4368    2.7935 C.ar    1  UNL1       -0.0029
     29 C          60.9022   93.3909    2.6328 C.ar    1  UNL1       -0.0061
     30 C          59.6414   93.1881    3.4196 C.ar    1  UNL1       -0.0029
     31 C          59.5266   92.0311    4.3673 C.ar    1  UNL1       -0.0003
     32 C          61.0170   94.5480    1.6851 C.3     1  UNL1        0.0993
     33 N          61.4722   94.3197    0.2743 N.3     1  UNL1       -0.2646
     34 C          60.4967   93.8426   -0.7607 C.3     1  UNL1        0.1049
     35 C          60.9519   93.6142   -2.1716 C.3     1  UNL1        0.1595
     36 O          62.3826   93.8630   -2.5476 O.3     1  UNL1       -0.3508
     37 C          63.3580   94.3400   -1.5127 C.3     1  UNL1        0.1595
     38 C          62.9028   94.5684   -0.1018 C.3     1  UNL1        0.1049
@<TRIPOS>BOND
     1    10    11    2
     2    11    12   am
     3    12    13    1
     4    13    14   ar
     5    14    15   ar
     6    15    16   ar
     7    16    17    1
     8    16    18   ar
     9    18    19   ar
    10    19    20    1
    11    20    21    1
    12    21    22    1
    13    22     1    1
    14     1     2    2
    15     2     3    1
    16     3     4    2
    17     4     5    1
    18     5    24    1
    19    24    25    2
    20    25    26    1
    21    26    27   ar
    22    27    28   ar
    23    28    29   ar
    24    29    32    1
    25    32    33    1
    26    33    34    1
    27    34    35    1
    28    35    36    1
    29    36    37    1
    30    37    38    1
    31    29    30   ar
    32    30    31   ar
    33     5     6    2
    34     6     7    1
    35     7     8    2
    36     8     9    1
    37    20    11    1
    38     9     1    1
    39    19    13   ar
    40    22    20    1
    41     8     4    1
    42    31    26   ar
    43    38    33    1
    44    12    23    1
@<TRIPOS>MOLECULE
*****
 38 44 0 0 0
SMALL
GASTEIGER

@<TRIPOS>ATOM
      1 C          61.8929   86.9888   10.7245 C.2     1  UNL1       -0.0378
      2 C          62.4476   88.2163   10.0646 C.2     1  UNL1       -0.0080
      3 C          61.6873   88.8797    8.9546 C.2     1  UNL1        0.0022
      4 C          60.3723   88.3155    8.5047 C.2     1  UNL1        0.0350
      5 C          59.4042   88.7493    7.4442 C.2     1  UNL1        0.1040
      6 N          58.2512   87.7900    7.4487 N.2     1  UNL1       -0.1483
      7 N          58.5066   86.7632    8.5120 N.2     1  UNL1       -0.1520
      8 C          59.8176   87.0881    9.1646 C.2     1  UNL1        0.0860
      9 C          60.5778   86.4247   10.2745 C.3     1  UNL1        0.0697
     10 O          64.5249   84.4610   14.5661 O.2     1  UNL1       -0.2744
     11 C          64.2921   85.9046   14.2319 C.2     1  UNL1        0.2293
     12 N          64.8133   87.0826   15.0003 N.am    1  UNL1       -0.2839
     13 C          64.3406   88.3298   14.3140 C.ar    1  UNL1        0.0468
     14 C          64.5457   89.7836   14.6209 C.ar    1  UNL1        0.0167
     15 C          63.9374   90.8303   13.7351 C.ar    1  UNL1        0.0309
     16 C          63.1239   90.4230   12.5424 C.ar    1  UNL1        0.1399
     17 F          62.5156   91.4696   11.6567 F       1  UNL1       -0.2042
     18 C          62.9188   88.9691   12.2355 C.ar    1  UNL1        0.0270
     19 C          63.5271   87.9225   13.1213 C.ar    1  UNL1        0.0014
     20 C          63.4972   86.4237   13.0706 C.3     1  UNL1        0.0928
     21 C          63.1259   85.0784   12.5208 C.3     1  UNL1        0.0179
     22 C          62.6531   86.3255   11.8345 C.3     1  UNL1        0.0315
     23 H          65.3683   87.0440   15.8126 H       1  UNL1        0.1549
     24 C          59.5616   89.9345    6.5382 C.2     1  UNL1        0.0209
     25 C          60.5092   89.8704    5.3773 C.2     1  UNL1        0.0016
     26 C          60.6667   91.0555    4.4713 C.ar    1  UNL1        0.0000
     27 C          59.5426   92.0368    4.3179 C.ar    1  UNL1       -0.0003
     28 C          59.7000   93.2219    3.4119 C.ar    1  UNL1       -0.0029
     29 C          60.9814   93.4257    2.6594 C.ar    1  UNL1       -0.0061
     30 C          62.1055   92.4444    2.8128 C.ar    1  UNL1       -0.0029
     31 C          61.9481   91.2593    3.7187 C.ar    1  UNL1       -0.0003
     32 C          61.1387   94.6108    1.7534 C.3     1  UNL1        0.0993
     33 N          60.0198   95.0080    0.8369 N.3     1  UNL1       -0.2646
     34 C          59.7589   96.4584    0.5566 C.3     1  UNL1        0.1049
     35 C          58.6400   96.8557   -0.3600 C.3     1  UNL1        0.1595
     36 O          57.7818   95.8027   -0.9962 O.3     1  UNL1       -0.3508
     37 C          58.0427   94.3524   -0.7158 C.3     1  UNL1        0.1595
     38 C          59.1616   93.9551    0.2007 C.3     1  UNL1        0.1049
@<TRIPOS>BOND
     1    10    11    2
     2    11    12   am
     3    12    13    1
     4    13    14   ar
     5    14    15   ar
     6    15    16   ar
     7    16    17    1
     8    16    18   ar
     9    18    19   ar
    10    19    20    1
    11    20    21    1
    12    21    22    1
    13    22     1    1
    14     1     2    2
    15     2     3    1
    16     3     4    2
    17     4     5    1
    18     5    24    1
    19    24    25    2
    20    25    26    1
    21    26    27   ar
    22    27    28   ar
    23    28    29   ar
    24    29    32    1
    25    32    33    1
    26    33    34    1
    27    34    35    1
    28    35    36    1
    29    36    37    1
    30    37    38    1
    31    29    30   ar
    32    30    31   ar
    33     5     6    2
    34     6     7    1
    35     7     8    2
    36     8     9    1
    37    20    11    1
    38     9     1    1
    39    19    13   ar
    40    22    20    1
    41     8     4    1
    42    31    26   ar
    43    38    33    1
    44    12    23    1
@<TRIPOS>MOLECULE
*****
 38 44 0 0 0
SMALL
GASTEIGER

@<TRIPOS>ATOM
      1 C          59.9868   92.9676    3.0870 C.2     1  UNL1       -0.0378
      2 C          61.1514   92.2791    3.7347 C.2     1  UNL1       -0.0080
      3 C          60.9159   91.2425    4.7931 C.2     1  UNL1        0.0022
      4 C          59.5159   90.8945    5.2037 C.2     1  UNL1        0.0350
      5 C          58.9776   89.9214    6.2104 C.2     1  UNL1        0.1040
      6 N          57.4804   90.0086    6.1849 N.2     1  UNL1       -0.1483
      7 N          57.0933   91.0355    5.1624 N.2     1  UNL1       -0.1520
      8 C          58.3512   91.5830    4.5559 C.2     1  UNL1        0.0860
      9 C          58.5867   92.6195    3.4976 C.3     1  UNL1        0.0697
     10 O          60.6230   96.6947   -0.6250 O.2     1  UNL1       -0.2744
     11 C          61.5104   95.6344   -0.0435 C.2     1  UNL1        0.2293
     12 N          62.9348   95.3672   -0.4303 N.am    1  UNL1       -0.2839
     13 C          63.4340   94.2228    0.4010 C.ar    1  UNL1        0.0468
     14 C          64.7605   93.5246    0.4543 C.ar    1  UNL1        0.0167
     15 C          64.9711   92.3862    1.4082 C.ar    1  UNL1        0.0309
     16 C          63.8552   91.9461    2.3087 C.ar    1  UNL1        0.1399
     17 F          64.0658   90.8078    3.2626 F       1  UNL1       -0.2042
     18 C          62.5287   92.6444    2.2554 C.ar    1  UNL1        0.0270
     19 C          62.3181   93.7827    1.3016 C.ar    1  UNL1        0.0014
     20 C          61.1292   94.6551    1.0268 C.3     1  UNL1        0.0928
     21 C          59.7231   95.1486    1.1973 C.3     1  UNL1        0.0179
     22 C          60.2222   94.0042    2.0286 C.3     1  UNL1        0.0315
     23 H          63.4514   95.8570   -1.1104 H       1  UNL1        0.1549
     24 C          59.7935   89.0196    7.0885 C.2     1  UNL1        0.0209
     25 C          59.8523   89.2650    8.5671 C.2     1  UNL1        0.0016
     26 C          60.6681   88.3631    9.4453 C.ar    1  UNL1        0.0000
     27 C          60.4556   86.8790    9.3996 C.ar    1  UNL1       -0.0003
     28 C          61.2714   85.9771   10.2777 C.ar    1  UNL1       -0.0029
     29 C          62.2997   86.5595   11.2015 C.ar    1  UNL1       -0.0061
     30 C          62.5122   88.0436   11.2473 C.ar    1  UNL1       -0.0029
     31 C          61.6964   88.9455   10.3691 C.ar    1  UNL1       -0.0003
     32 C          63.1155   85.6576   12.0797 C.3     1  UNL1        0.0993
     33 N          63.1234   84.1780   11.8338 N.3     1  UNL1       -0.2646
     34 C          62.4687   83.2511   12.8148 C.3     1  UNL1        0.1049
     35 C          62.4766   81.7714   12.5690 C.3     1  UNL1        0.1595
     36 O          63.1394   81.2185   11.3422 O.3     1  UNL1       -0.3508
     37 C          63.7941   82.1453   10.3612 C.3     1  UNL1        0.1595
     38 C          63.7862   83.6250   10.6070 C.3     1  UNL1        0.1049
@<TRIPOS>BOND
     1    10    11    2
     2    11    12   am
     3    12    13    1
     4    13    14   ar
     5    14    15   ar
     6    15    16   ar
     7    16    17    1
     8    16    18   ar
     9    18    19   ar
    10    19    20    1
    11    20    21    1
    12    21    22    1
    13    22     1    1
    14     1     2    2
    15     2     3    1
    16     3     4    2
    17     4     5    1
    18     5    24    1
    19    24    25    2
    20    25    26    1
    21    26    27   ar
    22    27    28   ar
    23    28    29   ar
    24    29    32    1
    25    32    33    1
    26    33    34    1
    27    34    35    1
    28    35    36    1
    29    36    37    1
    30    37    38    1
    31    29    30   ar
    32    30    31   ar
    33     5     6    2
    34     6     7    1
    35     7     8    2
    36     8     9    1
    37    20    11    1
    38     9     1    1
    39    19    13   ar
    40    22    20    1
    41     8     4    1
    42    31    26   ar
    43    38    33    1
    44    12    23    1
