@<TRIPOS>MOLECULE
*****
 27 29 0 0 0
SMALL
GASTEIGER

@<TRIPOS>ATOM
      1 C          65.8026   94.1036   10.9278 C.ar    1  UNL1        0.1535
      2 C          65.0067   92.8328   10.9669 C.ar    1  UNL1        0.1162
      3 N          65.1290   92.2515   12.3443 N.ar    1  UNL1       -0.2864
      4 C          64.5594   91.0099   12.9639 C.ar    1  UNL1        0.0815
      5 C          64.8613   90.6799   14.3957 C.ar    1  UNL1        0.0192
      6 C          65.7328   91.5915   15.2078 C.ar    1  UNL1        0.0046
      7 C          66.3024   92.8330   14.5881 C.ar    1  UNL1        0.0375
      8 C          66.0005   93.1630   13.1564 C.ar    1  UNL1        0.1493
      9 N          66.4168   94.3077   12.2809 N.ar    1  UNL1       -0.2116
     10 C          64.2917   89.4383   15.0154 C.ar    1  UNL1        0.0207
     11 C          63.3692   89.5434   16.1935 C.ar    1  UNL1        0.1003
     12 N          62.7996   88.3019   16.8132 N.ar    1  UNL1       -0.2297
     13 C          63.1524   86.9551   16.2548 C.ar    1  UNL1        0.1292
     14 N          62.5828   85.7136   16.8745 N.pl3   1  UNL1       -0.3427
     15 C          64.0749   86.8500   15.0766 C.ar    1  UNL1        0.1025
     16 C          64.6445   88.0916   14.4569 C.ar    1  UNL1        0.0083
     17 H          61.9773   85.7826   17.6477 H       1  UNL1        0.1437
     18 H          62.8143   84.8297   16.5080 H       1  UNL1        0.1437
     19 C          64.4277   85.5033   14.5182 C.3     1  UNL1        0.4211
     20 F          64.7805   84.1566   13.9598 F       1  UNL1       -0.1658
     21 F          65.8342   85.6666   15.0131 F       1  UNL1       -0.1658
     22 F          63.0212   85.3400   14.0233 F       1  UNL1       -0.1658
     23 C          67.4419   96.0410    7.8767 C.3     1  UNL1        0.0950
     24 C          67.2873   95.1337    9.0611 C.2     1  UNL1        0.2277
     25 O          68.4630   94.3489    9.5631 O.2     1  UNL1       -0.2747
     26 N          65.9572   95.0110    9.7434 N.am    1  UNL1       -0.2681
     27 H          65.1855   95.5260    9.4138 H       1  UNL1        0.1563
@<TRIPOS>BOND
     1    23    24    1
     2    24    25    2
     3    24    26   am
     4    26     1    1
     5     1     2   ar
     6     2     3   ar
     7     3     4   ar
     8     4     5   ar
     9     5    10    1
    10    10    11   ar
    11    11    12   ar
    12    12    13   ar
    13    13    14    1
    14    13    15   ar
    15    15    19    1
    16    19    20    1
    17    19    21    1
    18    19    22    1
    19    15    16   ar
    20     5     6   ar
    21     6     7   ar
    22     7     8   ar
    23     8     9   ar
    24     9     1   ar
    25     8     3   ar
    26    16    10   ar
    27    26    27    1
    28    14    17    1
    29    14    18    1
@<TRIPOS>MOLECULE
*****
 27 29 0 0 0
SMALL
GASTEIGER

@<TRIPOS>ATOM
      1 C          63.1119   84.3809   15.4793 C.ar    1  UNL1        0.1535
      2 C          63.8513   85.1842   14.4507 C.ar    1  UNL1        0.1162
      3 N          63.8451   86.6183   14.8901 N.ar    1  UNL1       -0.2864
      4 C          64.4201   87.8593   14.2742 C.ar    1  UNL1        0.0815
      5 C          64.2520   89.1834   14.9586 C.ar    1  UNL1        0.0192
      6 C          63.5087   89.2665   16.2589 C.ar    1  UNL1        0.0046
      7 C          62.9337   88.0256   16.8748 C.ar    1  UNL1        0.0375
      8 C          63.1018   86.7015   16.1904 C.ar    1  UNL1        0.1493
      9 N          62.6487   85.3187   16.5545 N.ar    1  UNL1       -0.2116
     10 C          64.8271   90.4244   14.3428 C.ar    1  UNL1        0.0207
     11 C          64.1209   91.0907   13.1994 C.ar    1  UNL1        0.1003
     12 N          64.6959   92.3317   12.5836 N.ar    1  UNL1       -0.2297
     13 C          65.9772   92.9064   13.1111 C.ar    1  UNL1        0.1292
     14 N          66.5522   94.1473   12.4952 N.pl3   1  UNL1       -0.3427
     15 C          66.6833   92.2400   14.2544 C.ar    1  UNL1        0.1025
     16 C          66.1083   90.9990   14.8703 C.ar    1  UNL1        0.0083
     17 H          66.0887   94.5847   11.7448 H       1  UNL1        0.1437
     18 H          67.3931   94.5245   12.8414 H       1  UNL1        0.1437
     19 C          67.9645   92.8146   14.7819 C.3     1  UNL1        0.4211
     20 F          69.2457   93.3892   15.3094 F       1  UNL1       -0.1658
     21 F          67.1941   93.5884   15.8103 F       1  UNL1       -0.1658
     22 F          68.7350   92.0409   13.7535 F       1  UNL1       -0.1658
     23 C          62.2856   80.7505   14.1056 C.3     1  UNL1        0.0950
     24 C          62.5205   82.2315   14.1452 C.2     1  UNL1        0.2277
     25 O          62.3990   83.0439   12.8901 O.2     1  UNL1       -0.2747
     26 N          62.8770   82.9000   15.4398 N.am    1  UNL1       -0.2681
     27 H          62.9567   82.3667   16.2635 H       1  UNL1        0.1563
@<TRIPOS>BOND
     1    23    24    1
     2    24    25    2
     3    24    26   am
     4    26     1    1
     5     1     2   ar
     6     2     3   ar
     7     3     4   ar
     8     4     5   ar
     9     5    10    1
    10    10    11   ar
    11    11    12   ar
    12    12    13   ar
    13    13    14    1
    14    13    15   ar
    15    15    19    1
    16    19    20    1
    17    19    21    1
    18    19    22    1
    19    15    16   ar
    20     5     6   ar
    21     6     7   ar
    22     7     8   ar
    23     8     9   ar
    24     9     1   ar
    25     8     3   ar
    26    16    10   ar
    27    26    27    1
    28    14    17    1
    29    14    18    1
@<TRIPOS>MOLECULE
*****
 27 29 0 0 0
SMALL
GASTEIGER

@<TRIPOS>ATOM
      1 C          63.2536   83.5046   12.4757 C.ar    1  UNL1        0.1535
      2 C          63.7962   84.2313   13.6705 C.ar    1  UNL1        0.1162
      3 N          63.6380   85.7033   13.4290 N.ar    1  UNL1       -0.2864
      4 C          63.9943   86.9006   14.2592 C.ar    1  UNL1        0.0815
      5 C          63.7103   88.2809   13.7455 C.ar    1  UNL1        0.0192
      6 C          63.0699   88.4639   12.4014 C.ar    1  UNL1        0.0046
      7 C          62.7136   87.2666   11.5712 C.ar    1  UNL1        0.0375
      8 C          62.9976   85.8863   12.0849 C.ar    1  UNL1        0.1493
      9 N          62.7601   84.5274   11.4958 N.ar    1  UNL1       -0.2116
     10 C          64.0666   89.4783   14.5758 C.ar    1  UNL1        0.0207
     11 C          63.2396   89.8315   15.7763 C.ar    1  UNL1        0.1003
     12 N          63.5958   91.0289   16.6066 N.ar    1  UNL1       -0.2297
     13 C          64.7792   91.8731   16.2363 C.ar    1  UNL1        0.1292
     14 N          65.1355   93.0704   17.0666 N.pl3   1  UNL1       -0.3427
     15 C          65.6063   91.5199   15.0358 C.ar    1  UNL1        0.1025
     16 C          65.2499   90.3225   14.2055 C.ar    1  UNL1        0.0083
     17 H          64.5927   93.3022   17.8546 H       1  UNL1        0.1437
     18 H          65.9122   93.6245   16.8236 H       1  UNL1        0.1437
     19 C          66.7896   92.3640   14.6656 C.3     1  UNL1        0.4211
     20 F          67.9729   93.2082   14.2954 F       1  UNL1       -0.1658
     21 F          67.6503   91.5679   15.6012 F       1  UNL1       -0.1658
     22 F          65.9290   93.1602   13.7300 F       1  UNL1       -0.1658
     23 C          62.3801   79.6777   13.0603 C.3     1  UNL1        0.0950
     24 C          62.4218   81.1659   13.2430 C.2     1  UNL1        0.2277
     25 O          61.6735   81.8037   14.3759 O.2     1  UNL1       -0.2747
     26 N          63.2118   82.0164   12.2930 N.am    1  UNL1       -0.2681
     27 H          63.7029   81.5977   11.5495 H       1  UNL1        0.1563
@<TRIPOS>BOND
     1    23    24    1
     2    24    25    2
     3    24    26   am
     4    26     1    1
     5     1     2   ar
     6     2     3   ar
     7     3     4   ar
     8     4     5   ar
     9     5    10    1
    10    10    11   ar
    11    11    12   ar
    12    12    13   ar
    13    13    14    1
    14    13    15   ar
    15    15    19    1
    16    19    20    1
    17    19    21    1
    18    19    22    1
    19    15    16   ar
    20     5     6   ar
    21     6     7   ar
    22     7     8   ar
    23     8     9   ar
    24     9     1   ar
    25     8     3   ar
    26    16    10   ar
    27    26    27    1
    28    14    17    1
    29    14    18    1
@<TRIPOS>MOLECULE
*****
 27 29 0 0 0
SMALL
GASTEIGER

@<TRIPOS>ATOM
      1 C          66.1157   92.8424   14.2115 C.ar    1  UNL1        0.1535
      2 C          65.2371   91.6268   14.2335 C.ar    1  UNL1        0.1162
      3 N          64.6266   91.4713   12.8722 N.ar    1  UNL1       -0.2864
      4 C          63.6791   90.4550   12.3072 C.ar    1  UNL1        0.0815
      5 C          63.2328   90.5582   10.8789 C.ar    1  UNL1        0.0192
      6 C          63.7340   91.6778   10.0156 C.ar    1  UNL1        0.0046
      7 C          64.6816   92.6941   10.5806 C.ar    1  UNL1        0.0375
      8 C          65.1279   92.5909   12.0089 C.ar    1  UNL1        0.1493
      9 N          66.0481   93.4382   12.8366 N.ar    1  UNL1       -0.2116
     10 C          62.2852   89.5419   10.3139 C.ar    1  UNL1        0.0207
     11 C          60.9128   89.9586    9.8749 C.ar    1  UNL1        0.1003
     12 N          59.9652   88.9423    9.3099 N.ar    1  UNL1       -0.2297
     13 C          60.3901   87.5092    9.1839 C.ar    1  UNL1        0.1292
     14 N          59.4425   86.4930    8.6188 N.pl3   1  UNL1       -0.3427
     15 C          61.7625   87.0925    9.6229 C.ar    1  UNL1        0.1025
     16 C          62.7101   88.1089   10.1879 C.ar    1  UNL1        0.0083
     17 H          58.5418   86.7665    8.3307 H       1  UNL1        0.1437
     18 H          59.7214   85.5524    8.5361 H       1  UNL1        0.1437
     19 C          62.1874   85.6595    9.4969 C.3     1  UNL1        0.4211
     20 F          62.6123   84.2265    9.3709 F       1  UNL1       -0.1658
     21 F          61.4546   85.3308   10.7637 F       1  UNL1       -0.1658
     22 F          62.9203   85.9882    8.2300 F       1  UNL1       -0.1658
     23 C          69.2213   93.7917   16.4927 C.3     1  UNL1        0.0950
     24 C          68.4166   93.2645   15.3418 C.2     1  UNL1        0.2277
     25 O          69.1080   92.6322   14.1704 O.2     1  UNL1       -0.2747
     26 N          66.9204   93.3695   15.3624 N.am    1  UNL1       -0.2681
     27 H          66.4666   93.7845   16.1312 H       1  UNL1        0.1563
@<TRIPOS>BOND
     1    23    24    1
     2    24    25    2
     3    24    26   am
     4    26     1    1
     5     1     2   ar
     6     2     3   ar
     7     3     4   ar
     8     4     5   ar
     9     5    10    1
    10    10    11   ar
    11    11    12   ar
    12    12    13   ar
    13    13    14    1
    14    13    15   ar
    15    15    19    1
    16    19    20    1
    17    19    21    1
    18    19    22    1
    19    15    16   ar
    20     5     6   ar
    21     6     7   ar
    22     7     8   ar
    23     8     9   ar
    24     9     1   ar
    25     8     3   ar
    26    16    10   ar
    27    26    27    1
    28    14    17    1
    29    14    18    1
@<TRIPOS>MOLECULE
*****
 27 29 0 0 0
SMALL
GASTEIGER

@<TRIPOS>ATOM
      1 C          59.3503   88.1608    7.6683 C.ar    1  UNL1        0.1535
      2 C          59.4640   87.9948    9.1547 C.ar    1  UNL1        0.1162
      3 N          60.5409   86.9869    9.4275 N.ar    1  UNL1       -0.2864
      4 C          61.0903   86.4261   10.7056 C.ar    1  UNL1        0.0815
      5 C          62.1916   85.4086   10.6659 C.ar    1  UNL1        0.0192
      6 C          62.7435   84.9517    9.3481 C.ar    1  UNL1        0.0046
      7 C          62.1941   85.5125    8.0700 C.ar    1  UNL1        0.0375
      8 C          61.0928   86.5301    8.1097 C.ar    1  UNL1        0.1493
      9 N          60.3570   87.2556    7.0224 N.ar    1  UNL1       -0.2116
     10 C          62.7410   84.8477   11.9441 C.ar    1  UNL1        0.0207
     11 C          63.4147   85.7534   12.9321 C.ar    1  UNL1        0.1003
     12 N          63.9641   85.1926   14.2102 N.ar    1  UNL1       -0.2297
     13 C          63.8399   83.7261   14.5004 C.ar    1  UNL1        0.1292
     14 N          64.3893   83.1654   15.7785 N.pl3   1  UNL1       -0.3427
     15 C          63.1663   82.8205   13.5125 C.ar    1  UNL1        0.1025
     16 C          62.6169   83.3813   12.2343 C.ar    1  UNL1        0.0083
     17 H          64.8315   83.7598   16.4269 H       1  UNL1        0.1437
     18 H          64.3078   82.2029   15.9690 H       1  UNL1        0.1437
     19 C          63.0421   81.3541   13.8026 C.3     1  UNL1        0.4211
     20 F          62.9179   79.8877   14.0928 F       1  UNL1       -0.1658
     21 F          64.3479   81.1060   13.1075 F       1  UNL1       -0.1658
     22 F          61.7363   81.6023   14.4977 F       1  UNL1       -0.1658
     23 C          57.9649   90.9977    5.2635 C.3     1  UNL1        0.0950
     24 C          58.9179   90.0864    5.9785 C.2     1  UNL1        0.2277
     25 O          60.3917   90.1894    5.7188 O.2     1  UNL1       -0.2747
     26 N          58.3972   89.0721    6.9532 N.am    1  UNL1       -0.2681
     27 H          57.4300   89.0045    7.1237 H       1  UNL1        0.1563
@<TRIPOS>BOND
     1    23    24    1
     2    24    25    2
     3    24    26   am
     4    26     1    1
     5     1     2   ar
     6     2     3   ar
     7     3     4   ar
     8     4     5   ar
     9     5    10    1
    10    10    11   ar
    11    11    12   ar
    12    12    13   ar
    13    13    14    1
    14    13    15   ar
    15    15    19    1
    16    19    20    1
    17    19    21    1
    18    19    22    1
    19    15    16   ar
    20     5     6   ar
    21     6     7   ar
    22     7     8   ar
    23     8     9   ar
    24     9     1   ar
    25     8     3   ar
    26    16    10   ar
    27    26    27    1
    28    14    17    1
    29    14    18    1
@<TRIPOS>MOLECULE
*****
 27 29 0 0 0
SMALL
GASTEIGER

@<TRIPOS>ATOM
      1 C          59.4191   88.7945    7.8870 C.ar    1  UNL1        0.1535
      2 C          59.5270   87.3470    8.2655 C.ar    1  UNL1        0.1162
      3 N          60.5622   87.2259    9.3443 N.ar    1  UNL1       -0.2864
      4 C          61.0892   86.0431   10.1013 C.ar    1  UNL1        0.0815
      5 C          62.1481   86.2329   11.1467 C.ar    1  UNL1        0.0192
      6 C          62.6799   87.6055   11.4349 C.ar    1  UNL1        0.0046
      7 C          62.1529   88.7883   10.6778 C.ar    1  UNL1        0.0375
      8 C          61.0941   88.5985    9.6325 C.ar    1  UNL1        0.1493
      9 N          60.3876   89.5679    8.7318 N.ar    1  UNL1       -0.2116
     10 C          62.6752   85.0501   11.9038 C.ar    1  UNL1        0.0207
     11 C          63.3676   85.2497   13.2194 C.ar    1  UNL1        0.1003
     12 N          63.8947   84.0669   13.9765 N.ar    1  UNL1       -0.2297
     13 C          63.7293   82.6845   13.4181 C.ar    1  UNL1        0.1292
     14 N          64.2563   81.5018   14.1752 N.pl3   1  UNL1       -0.3427
     15 C          63.0368   82.4850   12.1026 C.ar    1  UNL1        0.1025
     16 C          62.5097   83.6678   11.3454 C.ar    1  UNL1        0.0083
     17 H          64.7108   81.6328   15.0387 H       1  UNL1        0.1437
     18 H          64.1478   80.5945   13.8088 H       1  UNL1        0.1437
     19 C          62.8714   81.1027   11.5441 C.3     1  UNL1        0.4211
     20 F          62.7060   79.7204   10.9857 F       1  UNL1       -0.1658
     21 F          61.9784   80.7447   12.6949 F       1  UNL1       -0.1658
     22 F          63.7644   81.4607   10.3934 F       1  UNL1       -0.1658
     23 C          58.1212   90.9015    4.7844 C.3     1  UNL1        0.0950
     24 C          59.0369   90.3282    5.8251 C.2     1  UNL1        0.2277
     25 O          60.4860   90.7153    5.8444 O.2     1  UNL1       -0.2747
     26 N          58.5035   89.3678    6.8463 N.am    1  UNL1       -0.2681
     27 H          57.5524   89.1137    6.8336 H       1  UNL1        0.1563
@<TRIPOS>BOND
     1    23    24    1
     2    24    25    2
     3    24    26   am
     4    26     1    1
     5     1     2   ar
     6     2     3   ar
     7     3     4   ar
     8     4     5   ar
     9     5    10    1
    10    10    11   ar
    11    11    12   ar
    12    12    13   ar
    13    13    14    1
    14    13    15   ar
    15    15    19    1
    16    19    20    1
    17    19    21    1
    18    19    22    1
    19    15    16   ar
    20     5     6   ar
    21     6     7   ar
    22     7     8   ar
    23     8     9   ar
    24     9     1   ar
    25     8     3   ar
    26    16    10   ar
    27    26    27    1
    28    14    17    1
    29    14    18    1
@<TRIPOS>MOLECULE
*****
 27 29 0 0 0
SMALL
GASTEIGER

@<TRIPOS>ATOM
      1 C          61.7175   86.3581    9.4038 C.ar    1  UNL1        0.1535
      2 C          61.8991   87.7808    9.8428 C.ar    1  UNL1        0.1162
      3 N          62.5316   87.7692   11.2029 N.ar    1  UNL1       -0.2864
      4 C          62.9440   88.8759   12.1276 C.ar    1  UNL1        0.0815
      5 C          63.5656   88.5526   13.4538 C.ar    1  UNL1        0.0192
      6 C          63.7749   87.1226   13.8554 C.ar    1  UNL1        0.0046
      7 C          63.3625   86.0159   12.9308 C.ar    1  UNL1        0.0375
      8 C          62.7409   86.3392   11.6045 C.ar    1  UNL1        0.1493
      9 N          62.2377   85.4671   10.4926 N.ar    1  UNL1       -0.2116
     10 C          63.9780   89.6594   14.3786 C.ar    1  UNL1        0.0207
     11 C          63.1551   89.9666   15.5945 C.ar    1  UNL1        0.1003
     12 N          63.5675   91.0733   16.5192 N.ar    1  UNL1       -0.2297
     13 C          64.8028   91.8728   16.2281 C.ar    1  UNL1        0.1292
     14 N          65.2152   92.9795   17.1528 N.pl3   1  UNL1       -0.3427
     15 C          65.6258   91.5656   15.0122 C.ar    1  UNL1        0.1025
     16 C          65.2133   90.4589   14.0874 C.ar    1  UNL1        0.0083
     17 H          64.6751   93.1812   17.9508 H       1  UNL1        0.1437
     18 H          66.0260   93.5043   16.9617 H       1  UNL1        0.1437
     19 C          66.8611   92.3651   14.7210 C.3     1  UNL1        0.4211
     20 F          68.0964   93.1646   14.4298 F       1  UNL1       -0.1658
     21 F          67.7078   91.2607   15.2808 F       1  UNL1       -0.1658
     22 F          66.0144   93.4695   14.1612 F       1  UNL1       -0.1658
     23 C          61.2946   84.5339    5.9048 C.3     1  UNL1        0.0950
     24 C          61.8916   84.9863    7.2043 C.2     1  UNL1        0.2277
     25 O          63.2599   84.5191    7.6040 O.2     1  UNL1       -0.2747
     26 N          61.1205   85.9057    8.1042 N.am    1  UNL1       -0.2681
     27 H          60.2224   86.2124    7.8419 H       1  UNL1        0.1563
@<TRIPOS>BOND
     1    23    24    1
     2    24    25    2
     3    24    26   am
     4    26     1    1
     5     1     2   ar
     6     2     3   ar
     7     3     4   ar
     8     4     5   ar
     9     5    10    1
    10    10    11   ar
    11    11    12   ar
    12    12    13   ar
    13    13    14    1
    14    13    15   ar
    15    15    19    1
    16    19    20    1
    17    19    21    1
    18    19    22    1
    19    15    16   ar
    20     5     6   ar
    21     6     7   ar
    22     7     8   ar
    23     8     9   ar
    24     9     1   ar
    25     8     3   ar
    26    16    10   ar
    27    26    27    1
    28    14    17    1
    29    14    18    1
@<TRIPOS>MOLECULE
*****
 27 29 0 0 0
SMALL
GASTEIGER

@<TRIPOS>ATOM
      1 C          59.4565   87.9362    7.7237 C.ar    1  UNL1        0.1535
      2 C          59.6050   87.7406    9.2035 C.ar    1  UNL1        0.1162
      3 N          60.7071   86.7490    9.4318 N.ar    1  UNL1       -0.2864
      4 C          61.2944   86.1721   10.6857 C.ar    1  UNL1        0.0815
      5 C          62.4143   85.1780   10.6009 C.ar    1  UNL1        0.0192
      6 C          62.9470   84.7607    9.2622 C.ar    1  UNL1        0.0046
      7 C          62.3597   85.3375    8.0083 C.ar    1  UNL1        0.0375
      8 C          61.2397   86.3317    8.0931 C.ar    1  UNL1        0.1493
      9 N          60.4669   87.0654    7.0375 N.ar    1  UNL1       -0.2116
     10 C          63.0017   84.6010   11.8548 C.ar    1  UNL1        0.0207
     11 C          63.5715   83.2135   11.8467 C.ar    1  UNL1        0.1003
     12 N          64.1588   82.6366   13.1005 N.ar    1  UNL1       -0.2297
     13 C          64.1764   83.4472   14.3625 C.ar    1  UNL1        0.1292
     14 N          64.7637   82.8703   15.6164 N.pl3   1  UNL1       -0.3427
     15 C          63.6066   84.8347   14.3707 C.ar    1  UNL1        0.1025
     16 C          63.0192   85.4116   13.1167 C.ar    1  UNL1        0.0083
     17 H          65.1377   81.9596   15.6110 H       1  UNL1        0.1437
     18 H          64.7753   83.4023   16.4447 H       1  UNL1        0.1437
     19 C          63.6241   85.6453   15.6326 C.3     1  UNL1        0.4211
     20 F          63.6417   86.4559   16.8945 F       1  UNL1       -0.1658
     21 F          64.8816   86.3253   15.1784 F       1  UNL1       -0.1658
     22 F          62.3666   84.9654   16.0868 F       1  UNL1       -0.1658
     23 C          57.9682   90.8239    5.4444 C.3     1  UNL1        0.0950
     24 C          58.9539   89.9169    6.1194 C.2     1  UNL1        0.2277
     25 O          60.4228   90.0835    5.8649 O.2     1  UNL1       -0.2747
     26 N          58.4708   88.8432    7.0488 N.am    1  UNL1       -0.2681
     27 H          57.5067   88.7339    7.2158 H       1  UNL1        0.1563
@<TRIPOS>BOND
     1    23    24    1
     2    24    25    2
     3    24    26   am
     4    26     1    1
     5     1     2   ar
     6     2     3   ar
     7     3     4   ar
     8     4     5   ar
     9     5    10    1
    10    10    11   ar
    11    11    12   ar
    12    12    13   ar
    13    13    14    1
    14    13    15   ar
    15    15    19    1
    16    19    20    1
    17    19    21    1
    18    19    22    1
    19    15    16   ar
    20     5     6   ar
    21     6     7   ar
    22     7     8   ar
    23     8     9   ar
    24     9     1   ar
    25     8     3   ar
    26    16    10   ar
    27    26    27    1
    28    14    17    1
    29    14    18    1
@<TRIPOS>MOLECULE
*****
 27 29 0 0 0
SMALL
GASTEIGER

@<TRIPOS>ATOM
      1 C          59.2374   89.1426    7.4234 C.ar    1  UNL1        0.1535
      2 C          59.4160   87.6642    7.6029 C.ar    1  UNL1        0.1162
      3 N          60.4223   87.4478    8.6940 N.ar    1  UNL1       -0.2864
      4 C          60.9921   86.2000    9.3008 C.ar    1  UNL1        0.0815
      5 C          62.0053   86.2970   10.4026 C.ar    1  UNL1        0.0192
      6 C          62.4487   87.6418   10.8976 C.ar    1  UNL1        0.0046
      7 C          61.8788   88.8896   10.2908 C.ar    1  UNL1        0.0375
      8 C          60.8656   88.7926    9.1890 C.ar    1  UNL1        0.1493
      9 N          60.1334   89.8400    8.4037 N.ar    1  UNL1       -0.2116
     10 C          62.5752   85.0492   11.0095 C.ar    1  UNL1        0.0207
     11 C          63.2872   84.0520   10.1443 C.ar    1  UNL1        0.1003
     12 N          63.8571   82.8042   10.7511 N.ar    1  UNL1       -0.2297
     13 C          63.7150   82.5536   12.2232 C.ar    1  UNL1        0.1292
     14 N          64.2848   81.3058   12.8300 N.pl3   1  UNL1       -0.3427
     15 C          63.0029   83.5508   13.0884 C.ar    1  UNL1        0.1025
     16 C          62.4330   84.7986   12.4815 C.ar    1  UNL1        0.0083
     17 H          64.7522   80.6513   12.2621 H       1  UNL1        0.1437
     18 H          64.1915   81.1413   13.7961 H       1  UNL1        0.1437
     19 C          62.8608   83.3002   14.5605 C.3     1  UNL1        0.4211
     20 F          62.7186   83.0496   16.0325 F       1  UNL1       -0.1658
     21 F          61.6680   82.4297   14.2971 F       1  UNL1       -0.1658
     22 F          64.0536   84.1707   14.8238 F       1  UNL1       -0.1658
     23 C          57.9648   91.4368    4.4457 C.3     1  UNL1        0.0950
     24 C          58.8788   90.7724    5.4322 C.2     1  UNL1        0.2277
     25 O          60.3482   91.0734    5.4138 O.2     1  UNL1       -0.2747
     26 N          58.3234   89.8071    6.4369 N.am    1  UNL1       -0.2681
     27 H          57.3590   89.6096    6.4490 H       1  UNL1        0.1563
@<TRIPOS>BOND
     1    23    24    1
     2    24    25    2
     3    24    26   am
     4    26     1    1
     5     1     2   ar
     6     2     3   ar
     7     3     4   ar
     8     4     5   ar
     9     5    10    1
    10    10    11   ar
    11    11    12   ar
    12    12    13   ar
    13    13    14    1
    14    13    15   ar
    15    15    19    1
    16    19    20    1
    17    19    21    1
    18    19    22    1
    19    15    16   ar
    20     5     6   ar
    21     6     7   ar
    22     7     8   ar
    23     8     9   ar
    24     9     1   ar
    25     8     3   ar
    26    16    10   ar
    27    26    27    1
    28    14    17    1
    29    14    18    1
