@<TRIPOS>MOLECULE
*****
 22 24 0 0 0
SMALL
GASTEIGER

@<TRIPOS>ATOM
      1 C          63.4234   90.1563   12.0241 C.ar    1  UNL1        0.1455
      2 C          62.6281   90.5680   10.8208 C.ar    1  UNL1        0.0406
      3 C          61.8551   89.3737   10.3453 C.ar    1  UNL1        0.0411
      4 C          60.9030   89.1846    9.2017 C.ar    1  UNL1        0.0100
      5 C          60.2685   87.8457    8.9676 C.ar    1  UNL1        0.0378
      6 BR         59.3164   87.6566    7.8239 Br      1  UNL1       -0.0489
      7 C          60.5860   86.6960    9.8771 C.ar    1  UNL1        0.0465
      8 C          61.5380   86.8850   11.0207 C.ar    1  UNL1        0.1688
      9 O          61.8555   85.7352   11.9301 O.3     1  UNL1       -0.5028
     10 C          62.1726   88.2239   11.2548 C.ar    1  UNL1        0.1787
     11 O          63.1419   88.7075   12.2924 O.2     1  UNL1       -0.4504
     12 H          61.4592   84.8989   11.7839 H       1  UNL1        0.2923
     13 O          67.0875   93.6848   15.2060 O.3     1  UNL1       -0.5029
     14 C          66.1714   92.8026   14.4106 C.ar    1  UNL1        0.1675
     15 C          65.4678   91.6575   15.0765 C.ar    1  UNL1        0.0399
     16 C          64.5517   90.7754   14.2810 C.ar    1  UNL1        0.0063
     17 C          64.3394   91.0384   12.8195 C.ar    1  UNL1        0.0378
     18 C          65.0431   92.1835   12.1536 C.ar    1  UNL1        0.0428
     19 C          65.9591   93.0656   12.9492 C.ar    1  UNL1        0.1676
     20 O          66.6628   94.2108   12.2832 O.3     1  UNL1       -0.5029
     21 H          67.2201   93.5205   16.1189 H       1  UNL1        0.2923
     22 H          66.5302   94.3750   11.3703 H       1  UNL1        0.2923
@<TRIPOS>BOND
     1    13    14    1
     2    14    15   ar
     3    15    16   ar
     4    16    17   ar
     5    17     1    1
     6     1     2   ar
     7     2     3   ar
     8     3     4   ar
     9     4     5   ar
    10     5     6    1
    11     5     7   ar
    12     7     8   ar
    13     8     9    1
    14     8    10   ar
    15    10    11   ar
    16    17    18   ar
    17    18    19   ar
    18    19    20    1
    19    19    14   ar
    20    11     1   ar
    21    10     3   ar
    22    13    21    1
    23     9    12    1
    24    20    22    1
@<TRIPOS>MOLECULE
*****
 22 24 0 0 0
SMALL
GASTEIGER

@<TRIPOS>ATOM
      1 C          62.4308   89.5438   10.5905 C.ar    1  UNL1        0.1455
      2 C          62.7910   89.3545   12.0343 C.ar    1  UNL1        0.0406
      3 C          63.7761   90.4214   12.4099 C.ar    1  UNL1        0.0411
      4 C          64.4789   90.7298   13.6987 C.ar    1  UNL1        0.0100
      5 C          65.4304   91.8869   13.7759 C.ar    1  UNL1        0.0378
      6 BR         66.1332   92.1953   15.0648 Br      1  UNL1       -0.0489
      7 C          65.6790   92.7355   12.5644 C.ar    1  UNL1        0.0465
      8 C          64.9762   92.4272   11.2756 C.ar    1  UNL1        0.1688
      9 O          65.2249   93.2759   10.0641 O.3     1  UNL1       -0.5028
     10 C          64.0248   91.2701   11.1984 C.ar    1  UNL1        0.1787
     11 O          63.1933   90.7277   10.0739 O.2     1  UNL1       -0.4504
     12 H          65.8192   93.9987   10.1123 H       1  UNL1        0.2923
     13 O          58.6105   86.1595    7.4358 O.3     1  UNL1       -0.5029
     14 C          59.5656   87.0056    8.2245 C.ar    1  UNL1        0.1675
     15 C          60.5077   86.3632    9.1991 C.ar    1  UNL1        0.0399
     16 C          61.4627   87.2094    9.9878 C.ar    1  UNL1        0.0063
     17 C          61.4757   88.6978    9.8018 C.ar    1  UNL1        0.0378
     18 C          60.5336   89.3401    8.8272 C.ar    1  UNL1        0.0428
     19 C          59.5785   88.4939    8.0386 C.ar    1  UNL1        0.1676
     20 O          58.6365   89.1362    7.0639 O.3     1  UNL1       -0.5029
     21 H          58.6024   85.2298    7.5519 H       1  UNL1        0.2923
     22 H          58.6445   90.0660    6.9478 H       1  UNL1        0.2923
@<TRIPOS>BOND
     1    13    14    1
     2    14    15   ar
     3    15    16   ar
     4    16    17   ar
     5    17     1    1
     6     1     2   ar
     7     2     3   ar
     8     3     4   ar
     9     4     5   ar
    10     5     6    1
    11     5     7   ar
    12     7     8   ar
    13     8     9    1
    14     8    10   ar
    15    10    11   ar
    16    17    18   ar
    17    18    19   ar
    18    19    20    1
    19    19    14   ar
    20    11     1   ar
    21    10     3   ar
    22    13    21    1
    23     9    12    1
    24    20    22    1
@<TRIPOS>MOLECULE
*****
 22 24 0 0 0
SMALL
GASTEIGER

@<TRIPOS>ATOM
      1 C          62.3316   89.3080   10.8202 C.ar    1  UNL1        0.1455
      2 C          63.1042   90.5371   10.4425 C.ar    1  UNL1        0.0406
      3 C          63.8988   90.9708   11.6385 C.ar    1  UNL1        0.0411
      4 C          64.8423   92.1166   11.8549 C.ar    1  UNL1        0.0100
      5 C          65.5044   92.3014   13.1881 C.ar    1  UNL1        0.0378
      6 BR         66.4480   93.4473   13.4045 Br      1  UNL1       -0.0489
      7 C          65.2230   91.3405   14.3049 C.ar    1  UNL1        0.0465
      8 C          64.2795   90.1947   14.0886 C.ar    1  UNL1        0.1688
      9 O          63.9981   89.2337   15.2054 O.3     1  UNL1       -0.5028
     10 C          63.6174   90.0098   12.7554 C.ar    1  UNL1        0.1787
     11 O          62.6488   88.9822   12.2496 O.2     1  UNL1       -0.4504
     12 H          64.4117   89.3492   16.0382 H       1  UNL1        0.2923
     13 O          58.6236   86.2348    7.2417 O.3     1  UNL1       -0.5029
     14 C          59.5506   87.0031    8.1363 C.ar    1  UNL1        0.1675
     15 C          60.3948   86.2778    9.1419 C.ar    1  UNL1        0.0399
     16 C          61.3218   87.0462   10.0365 C.ar    1  UNL1        0.0063
     17 C          61.4046   88.5397    9.9256 C.ar    1  UNL1        0.0378
     18 C          60.5604   89.2650    8.9200 C.ar    1  UNL1        0.0428
     19 C          59.6334   88.4966    8.0254 C.ar    1  UNL1        0.1676
     20 O          58.7891   89.2219    7.0198 O.3     1  UNL1       -0.5029
     21 H          58.5718   85.3018    7.3110 H       1  UNL1        0.2923
     22 H          58.8408   90.1549    6.9505 H       1  UNL1        0.2923
@<TRIPOS>BOND
     1    13    14    1
     2    14    15   ar
     3    15    16   ar
     4    16    17   ar
     5    17     1    1
     6     1     2   ar
     7     2     3   ar
     8     3     4   ar
     9     4     5   ar
    10     5     6    1
    11     5     7   ar
    12     7     8   ar
    13     8     9    1
    14     8    10   ar
    15    10    11   ar
    16    17    18   ar
    17    18    19   ar
    18    19    20    1
    19    19    14   ar
    20    11     1   ar
    21    10     3   ar
    22    13    21    1
    23     9    12    1
    24    20    22    1
@<TRIPOS>MOLECULE
*****
 22 24 0 0 0
SMALL
GASTEIGER

@<TRIPOS>ATOM
      1 C          63.2907   90.2491   11.7404 C.ar    1  UNL1        0.1455
      2 C          63.7704   89.9953   13.1387 C.ar    1  UNL1        0.0406
      3 C          64.7420   91.0796   13.4994 C.ar    1  UNL1        0.0411
      4 C          65.5324   91.3450   14.7463 C.ar    1  UNL1        0.0100
      5 C          66.4436   92.5345   14.8178 C.ar    1  UNL1        0.0378
      6 BR         67.2340   92.7999   16.0648 Br      1  UNL1       -0.0489
      7 C          66.5644   93.4584   13.6424 C.ar    1  UNL1        0.0465
      8 C          65.7740   93.1930   12.3954 C.ar    1  UNL1        0.1688
      9 O          65.8949   94.1169   11.2200 O.3     1  UNL1       -0.5028
     10 C          64.8629   92.0036   12.3239 C.ar    1  UNL1        0.1787
     11 O          63.9659   91.4903   11.2368 O.2     1  UNL1       -0.4504
     12 H          66.4641   94.8599   11.2646 H       1  UNL1        0.2923
     13 O          59.3610   86.8895    8.6955 O.3     1  UNL1       -0.5029
     14 C          60.3434   87.7294    9.4567 C.ar    1  UNL1        0.1675
     15 C          60.3418   89.2203    9.2917 C.ar    1  UNL1        0.0399
     16 C          61.3243   90.0601   10.0529 C.ar    1  UNL1        0.0063
     17 C          62.3083   89.4092   10.9792 C.ar    1  UNL1        0.0378
     18 C          62.3099   87.9183   11.1442 C.ar    1  UNL1        0.0428
     19 C          61.3275   87.0784   10.3829 C.ar    1  UNL1        0.1676
     20 O          61.3291   85.5875   10.5479 O.3     1  UNL1       -0.5029
     21 H          58.7463   87.2961    8.1169 H       1  UNL1        0.2923
     22 H          61.9438   85.1809   11.1265 H       1  UNL1        0.2923
@<TRIPOS>BOND
     1    13    14    1
     2    14    15   ar
     3    15    16   ar
     4    16    17   ar
     5    17     1    1
     6     1     2   ar
     7     2     3   ar
     8     3     4   ar
     9     4     5   ar
    10     5     6    1
    11     5     7   ar
    12     7     8   ar
    13     8     9    1
    14     8    10   ar
    15    10    11   ar
    16    17    18   ar
    17    18    19   ar
    18    19    20    1
    19    19    14   ar
    20    11     1   ar
    21    10     3   ar
    22    13    21    1
    23     9    12    1
    24    20    22    1
@<TRIPOS>MOLECULE
*****
 22 24 0 0 0
SMALL
GASTEIGER

@<TRIPOS>ATOM
      1 C          61.9714   85.4860   11.2912 C.ar    1  UNL1        0.1455
      2 C          61.4676   85.4711    9.8784 C.ar    1  UNL1        0.0406
      3 C          60.9782   86.8496    9.5464 C.ar    1  UNL1        0.0411
      4 C          60.3752   87.4275    8.3004 C.ar    1  UNL1        0.0100
      5 C          59.9736   88.8723    8.2620 C.ar    1  UNL1        0.0378
      6 BR         59.3706   89.4502    7.0160 Br      1  UNL1       -0.0489
      7 C          60.1750   89.7390    9.4695 C.ar    1  UNL1        0.0465
      8 C          60.7780   89.1611   10.7154 C.ar    1  UNL1        0.1688
      9 O          60.9793   90.0280   11.9229 O.3     1  UNL1       -0.5028
     10 C          61.1796   87.7164   10.7539 C.ar    1  UNL1        0.1787
     11 O          61.7934   86.8736   11.8323 O.2     1  UNL1       -0.4504
     12 H          60.7285   90.9304   11.8989 H       1  UNL1        0.2923
     13 O          64.2915   80.8148   14.2574 O.3     1  UNL1       -0.5029
     14 C          63.7115   81.9826   13.5158 C.ar    1  UNL1        0.1675
     15 C          63.8890   82.0908   12.0303 C.ar    1  UNL1        0.0399
     16 C          63.3089   83.2587   11.2888 C.ar    1  UNL1        0.0063
     17 C          62.5514   84.3182   12.0327 C.ar    1  UNL1        0.0378
     18 C          62.3739   84.2100   13.5183 C.ar    1  UNL1        0.0428
     19 C          62.9539   83.0422   14.2598 C.ar    1  UNL1        0.1676
     20 O          62.7764   82.9339   15.7453 O.3     1  UNL1       -0.5029
     21 H          64.7647   80.1530   13.7926 H       1  UNL1        0.2923
     22 H          62.3032   83.5958   16.2100 H       1  UNL1        0.2923
@<TRIPOS>BOND
     1    13    14    1
     2    14    15   ar
     3    15    16   ar
     4    16    17   ar
     5    17     1    1
     6     1     2   ar
     7     2     3   ar
     8     3     4   ar
     9     4     5   ar
    10     5     6    1
    11     5     7   ar
    12     7     8   ar
    13     8     9    1
    14     8    10   ar
    15    10    11   ar
    16    17    18   ar
    17    18    19   ar
    18    19    20    1
    19    19    14   ar
    20    11     1   ar
    21    10     3   ar
    22    13    21    1
    23     9    12    1
    24    20    22    1
@<TRIPOS>MOLECULE
*****
 22 24 0 0 0
SMALL
GASTEIGER

@<TRIPOS>ATOM
      1 C          62.8375   90.0032   12.1948 C.ar    1  UNL1        0.1455
      2 C          64.0399   90.8399   11.8718 C.ar    1  UNL1        0.0406
      3 C          64.6191   91.3369   13.1630 C.ar    1  UNL1        0.0411
      4 C          65.8063   92.2033   13.4629 C.ar    1  UNL1        0.0100
      5 C          66.1492   92.5401   14.8839 C.ar    1  UNL1        0.0378
      6 BR         67.3365   93.4065   15.1837 Br      1  UNL1       -0.0489
      7 C          65.3048   92.0107   16.0048 C.ar    1  UNL1        0.0465
      8 C          64.1176   91.1444   15.7050 C.ar    1  UNL1        0.1688
      9 O          63.2732   90.6149   16.8260 O.3     1  UNL1       -0.5028
     10 C          63.7747   90.8075   14.2841 C.ar    1  UNL1        0.1787
     11 O          62.6736   89.9832   13.6856 O.2     1  UNL1       -0.4504
     12 H          63.4874   90.8253   17.7136 H       1  UNL1        0.2923
     13 O          59.3038   87.2246    8.2208 O.3     1  UNL1       -0.5029
     14 C          60.1872   87.9192    9.2143 C.ar    1  UNL1        0.1675
     15 C          60.1037   89.4077    9.3801 C.ar    1  UNL1        0.0399
     16 C          60.9872   90.1023   10.3737 C.ar    1  UNL1        0.0063
     17 C          61.9541   89.3085   11.2013 C.ar    1  UNL1        0.0378
     18 C          62.0376   87.8201   11.0354 C.ar    1  UNL1        0.0428
     19 C          61.1541   87.1255   10.0419 C.ar    1  UNL1        0.1676
     20 O          61.2376   85.6370    9.8761 O.3     1  UNL1       -0.5029
     21 H          58.6997   87.7204    7.7038 H       1  UNL1        0.2923
     22 H          61.8416   85.1412   10.3931 H       1  UNL1        0.2923
@<TRIPOS>BOND
     1    13    14    1
     2    14    15   ar
     3    15    16   ar
     4    16    17   ar
     5    17     1    1
     6     1     2   ar
     7     2     3   ar
     8     3     4   ar
     9     4     5   ar
    10     5     6    1
    11     5     7   ar
    12     7     8   ar
    13     8     9    1
    14     8    10   ar
    15    10    11   ar
    16    17    18   ar
    17    18    19   ar
    18    19    20    1
    19    19    14   ar
    20    11     1   ar
    21    10     3   ar
    22    13    21    1
    23     9    12    1
    24    20    22    1
@<TRIPOS>MOLECULE
*****
 22 24 0 0 0
SMALL
GASTEIGER

@<TRIPOS>ATOM
      1 C          63.4281   85.8536   13.0778 C.ar    1  UNL1        0.1455
      2 C          64.1594   86.4866   14.2243 C.ar    1  UNL1        0.0406
      3 C          64.1345   87.9732   14.0258 C.ar    1  UNL1        0.0411
      4 C          64.6953   89.1036   14.8368 C.ar    1  UNL1        0.0100
      5 C          64.5093   90.5198   14.3786 C.ar    1  UNL1        0.0378
      6 BR         65.0702   91.6502   15.1896 Br      1  UNL1       -0.0489
      7 C          63.7627   90.8055   13.1095 C.ar    1  UNL1        0.0465
      8 C          63.2019   89.6751   12.2985 C.ar    1  UNL1        0.1688
      9 O          62.4552   89.9609   11.0293 O.3     1  UNL1       -0.5028
     10 C          63.3878   88.2590   12.7567 C.ar    1  UNL1        0.1787
     11 O          62.9512   86.9490   12.1708 O.2     1  UNL1       -0.4504
     12 H          62.3390   90.8455   10.7431 H       1  UNL1        0.2923
     13 O          62.5623   79.9725   12.2629 O.3     1  UNL1       -0.5029
     14 C          62.7788   81.4428   12.4666 C.ar    1  UNL1        0.1675
     15 C          63.3142   82.2844   11.3463 C.ar    1  UNL1        0.0399
     16 C          63.5307   83.7546   11.5501 C.ar    1  UNL1        0.0063
     17 C          63.2116   84.3833   12.8741 C.ar    1  UNL1        0.0378
     18 C          62.6762   83.5418   13.9944 C.ar    1  UNL1        0.0428
     19 C          62.4598   82.0715   13.7906 C.ar    1  UNL1        0.1676
     20 O          61.9243   81.2299   14.9109 O.3     1  UNL1       -0.5029
     21 H          62.7616   79.5798   11.4359 H       1  UNL1        0.2923
     22 H          61.7250   81.6227   15.7379 H       1  UNL1        0.2923
@<TRIPOS>BOND
     1    13    14    1
     2    14    15   ar
     3    15    16   ar
     4    16    17   ar
     5    17     1    1
     6     1     2   ar
     7     2     3   ar
     8     3     4   ar
     9     4     5   ar
    10     5     6    1
    11     5     7   ar
    12     7     8   ar
    13     8     9    1
    14     8    10   ar
    15    10    11   ar
    16    17    18   ar
    17    18    19   ar
    18    19    20    1
    19    19    14   ar
    20    11     1   ar
    21    10     3   ar
    22    13    21    1
    23     9    12    1
    24    20    22    1
@<TRIPOS>MOLECULE
*****
 22 24 0 0 0
SMALL
GASTEIGER

@<TRIPOS>ATOM
      1 C          62.6241   85.9710   11.9656 C.ar    1  UNL1        0.1455
      2 C          62.6351   84.7325   11.1193 C.ar    1  UNL1        0.0406
      3 C          62.6161   83.5450   12.0355 C.ar    1  UNL1        0.0411
      4 C          62.6165   82.0694   11.7661 C.ar    1  UNL1        0.0100
      5 C          62.5943   81.0983   12.9092 C.ar    1  UNL1        0.0378
      6 BR         62.5947   79.6226   12.6397 Br      1  UNL1       -0.0489
      7 C          62.5715   81.6028   14.3215 C.ar    1  UNL1        0.0465
      8 C          62.5710   83.0784   14.5909 C.ar    1  UNL1        0.1688
      9 O          62.5482   83.5829   16.0034 O.3     1  UNL1       -0.5028
     10 C          62.5933   84.0495   13.4479 C.ar    1  UNL1        0.1787
     11 O          62.5982   85.5488   13.4047 O.2     1  UNL1       -0.4504
     12 H          62.5343   82.9763   16.7174 H       1  UNL1        0.2923
     13 O          62.6744   91.6214    9.9480 O.3     1  UNL1       -0.5029
     14 C          62.6618   90.2088   10.4524 C.ar    1  UNL1        0.1675
     15 C          62.0877   89.1141    9.6027 C.ar    1  UNL1        0.0399
     16 C          62.0751   87.7015   10.1071 C.ar    1  UNL1        0.0063
     17 C          62.6367   87.3836   11.4612 C.ar    1  UNL1        0.0378
     18 C          63.2108   88.4783   12.3109 C.ar    1  UNL1        0.0428
     19 C          63.2233   89.8909   11.8065 C.ar    1  UNL1        0.1676
     20 O          63.7974   90.9855   12.6562 O.3     1  UNL1       -0.5029
     21 H          62.3236   91.8200    9.1022 H       1  UNL1        0.2923
     22 H          64.1482   90.7869   13.5021 H       1  UNL1        0.2923
@<TRIPOS>BOND
     1    13    14    1
     2    14    15   ar
     3    15    16   ar
     4    16    17   ar
     5    17     1    1
     6     1     2   ar
     7     2     3   ar
     8     3     4   ar
     9     4     5   ar
    10     5     6    1
    11     5     7   ar
    12     7     8   ar
    13     8     9    1
    14     8    10   ar
    15    10    11   ar
    16    17    18   ar
    17    18    19   ar
    18    19    20    1
    19    19    14   ar
    20    11     1   ar
    21    10     3   ar
    22    13    21    1
    23     9    12    1
    24    20    22    1
@<TRIPOS>MOLECULE
*****
 22 24 0 0 0
SMALL
GASTEIGER

@<TRIPOS>ATOM
      1 C          61.9568   86.1401   11.0259 C.ar    1  UNL1        0.1455
      2 C          61.9425   84.6493   10.8615 C.ar    1  UNL1        0.0406
      3 C          62.6871   84.0484   12.0167 C.ar    1  UNL1        0.0411
      4 C          62.9943   82.6264   12.3822 C.ar    1  UNL1        0.0100
      5 C          63.7761   82.3240   13.6262 C.ar    1  UNL1        0.0378
      6 BR         64.0834   80.9020   13.9918 Br      1  UNL1       -0.0489
      7 C          64.2505   83.4435   14.5046 C.ar    1  UNL1        0.0465
      8 C          63.9433   84.8654   14.1390 C.ar    1  UNL1        0.1688
      9 O          64.4178   85.9849   15.0175 O.3     1  UNL1       -0.5028
     10 C          63.1616   85.1679   12.8951 C.ar    1  UNL1        0.1787
     11 O          62.7102   86.4607   12.2828 O.2     1  UNL1       -0.4504
     12 H          64.9061   85.7960   15.7945 H       1  UNL1        0.2923
     13 O          59.4419   90.1226    7.3090 O.3     1  UNL1       -0.5029
     14 C          60.0707   89.1270    8.2382 C.ar    1  UNL1        0.1675
     15 C          61.1310   89.5675    9.2034 C.ar    1  UNL1        0.0399
     16 C          61.7597   88.5718   10.1327 C.ar    1  UNL1        0.0063
     17 C          61.3281   87.1357   10.0967 C.ar    1  UNL1        0.0378
     18 C          60.2678   86.6952    9.1315 C.ar    1  UNL1        0.0428
     19 C          59.6391   87.6909    8.2022 C.ar    1  UNL1        0.1676
     20 O          58.5787   87.2504    7.2370 O.3     1  UNL1       -0.5029
     21 H          59.7115   91.0197    7.3315 H       1  UNL1        0.2923
     22 H          58.3091   86.3534    7.2145 H       1  UNL1        0.2923
@<TRIPOS>BOND
     1    13    14    1
     2    14    15   ar
     3    15    16   ar
     4    16    17   ar
     5    17     1    1
     6     1     2   ar
     7     2     3   ar
     8     3     4   ar
     9     4     5   ar
    10     5     6    1
    11     5     7   ar
    12     7     8   ar
    13     8     9    1
    14     8    10   ar
    15    10    11   ar
    16    17    18   ar
    17    18    19   ar
    18    19    20    1
    19    19    14   ar
    20    11     1   ar
    21    10     3   ar
    22    13    21    1
    23     9    12    1
    24    20    22    1
