@<TRIPOS>MOLECULE
*****
 33 37 0 0 0
SMALL
GASTEIGER

@<TRIPOS>ATOM
      1 C          60.3355   87.1086    8.9370 C.3     1  UNL1        0.1350
      2 C          61.2894   86.4230    9.8696 C.3     1  UNL1        0.1231
      3 N          61.9092   87.1859   11.0028 N.am    1  UNL1       -0.2724
      4 C          62.8632   86.5002   11.9354 C.2     1  UNL1        0.2506
      5 O          63.4829   87.2630   13.0686 O.2     1  UNL1       -0.2699
      6 C          61.5750   88.6343   11.2032 C.3     1  UNL1        0.1096
      7 C          60.6210   89.3199   10.2706 C.3     1  UNL1        0.1621
      8 O          60.0013   88.5571    9.1374 O.3     1  UNL1       -0.3527
      9 C          63.1974   85.0517   11.7350 C.ar    1  UNL1        0.0729
     10 C          63.3627   84.5052   10.3479 C.ar    1  UNL1        0.0061
     11 C          63.6969   83.0566   10.1475 C.ar    1  UNL1        0.0002
     12 C          63.8658   82.1547   11.3340 C.ar    1  UNL1        0.0016
     13 C          63.7005   82.7013   12.7211 C.ar    1  UNL1        0.0211
     14 C          63.3663   84.1498   12.9216 C.ar    1  UNL1        0.1072
     15 N          63.2009   84.6963   14.3086 N.ar    1  UNL1       -0.1477
     16 N          61.9193   84.7561   15.0858 N.ar    1  UNL1       -0.1447
     17 C          62.2145   85.3758   16.4196 C.ar    1  UNL1        0.1446
     18 C          63.6785   85.6990   16.4667 C.ar    1  UNL1        0.1446
     19 N          64.2881   85.2791   15.1621 N.ar    1  UNL1       -0.1447
     20 C          60.5170   85.3131    7.0680 C.3     1  UNL1        0.0026
     21 C          59.7158   86.3458    7.8038 C.3     1  UNL1        0.0313
     22 C          62.1947   89.3972   12.3364 C.3     1  UNL1        0.0488
     23 C          63.2397   90.4366   12.0579 C.ar    1  UNL1       -0.0189
     24 C          63.3216   91.0735   10.7022 C.ar    1  UNL1       -0.0041
     25 C          64.3666   92.1129   10.4238 C.ar    1  UNL1        0.0013
     26 C          65.3297   92.5155   11.5009 C.ar    1  UNL1        0.0209
     27 C          65.2478   91.8787   12.8565 C.ar    1  UNL1        0.1026
     28 C          64.2028   90.8392   13.1351 C.ar    1  UNL1        0.0167
     29 N          66.2110   92.2813   13.9337 N.ar    1  UNL1       -0.1478
     30 N          67.6943   92.4389   13.7763 N.ar    1  UNL1       -0.1447
     31 C          68.2600   92.8520   15.1027 C.ar    1  UNL1        0.1446
     32 C          67.1262   92.9498   16.0799 C.ar    1  UNL1        0.1446
     33 N          65.8599   92.5971   15.3574 N.ar    1  UNL1       -0.1447
@<TRIPOS>BOND
     1    20    21    1
     2     1    21    1
     3     1     2    1
     4     2     3    1
     5     3     4   am
     6     4     5    2
     7     4     9    1
     8     9    10   ar
     9    10    11   ar
    10    11    12   ar
    11    12    13   ar
    12    13    14   ar
    13    14    15    1
    14    15    16   ar
    15    16    17   ar
    16    17    18   ar
    17    18    19   ar
    18     3     6    1
    19     6    22    1
    20    22    23    1
    21    23    24   ar
    22    24    25   ar
    23    25    26   ar
    24    26    27   ar
    25    27    29    1
    26    29    30   ar
    27    30    31   ar
    28    31    32   ar
    29    32    33   ar
    30    27    28   ar
    31     6     7    1
    32     7     8    1
    33     8     1    1
    34    14     9   ar
    35    19    15   ar
    36    28    23   ar
    37    33    29   ar
@<TRIPOS>MOLECULE
*****
 33 37 0 0 0
SMALL
GASTEIGER

@<TRIPOS>ATOM
      1 C          60.7888   89.0153    9.4407 C.3     1  UNL1        0.1350
      2 C          61.5381   87.9550   10.1920 C.3     1  UNL1        0.1231
      3 N          62.2121   88.2898   11.4896 N.am    1  UNL1       -0.2724
      4 C          62.9614   87.2295   12.2409 C.2     1  UNL1        0.2506
      5 O          63.6355   87.5642   13.5384 O.2     1  UNL1       -0.2699
      6 C          62.1369   89.6847   12.0358 C.3     1  UNL1        0.1096
      7 C          61.3876   90.7449   11.2845 C.3     1  UNL1        0.1621
      8 O          60.7136   90.4102    9.9870 O.3     1  UNL1       -0.3527
      9 C          63.0367   85.8345   11.6946 C.ar    1  UNL1        0.0729
     10 C          63.0213   85.6079   10.2119 C.ar    1  UNL1        0.0061
     11 C          63.0966   84.2128    9.6657 C.ar    1  UNL1        0.0002
     12 C          63.1873   83.0446   10.6021 C.ar    1  UNL1        0.0016
     13 C          63.2027   83.2713   12.0848 C.ar    1  UNL1        0.0211
     14 C          63.1274   84.6662   12.6310 C.ar    1  UNL1        0.1072
     15 N          63.1428   84.8929   14.1137 N.ar    1  UNL1       -0.1477
     16 N          61.9570   84.8182   15.0295 N.ar    1  UNL1       -0.1447
     17 C          62.4281   85.1132   16.4227 C.ar    1  UNL1        0.1446
     18 C          63.9049   85.3703   16.3681 C.ar    1  UNL1        0.1446
     19 N          64.3466   85.2341   14.9410 N.ar    1  UNL1       -0.1447
     20 C          59.5096   87.3231    7.9407 C.3     1  UNL1        0.0026
     21 C          60.1148   88.6805    8.1431 C.3     1  UNL1        0.0313
     22 C          62.8109   90.0194   13.3334 C.3     1  UNL1        0.0488
     23 C          64.1289   90.7355   13.3310 C.ar    1  UNL1       -0.0189
     24 C          65.0946   90.5327   14.4608 C.ar    1  UNL1       -0.0041
     25 C          66.4126   91.2488   14.4585 C.ar    1  UNL1        0.0013
     26 C          66.7651   92.1675   13.3264 C.ar    1  UNL1        0.0209
     27 C          65.7994   92.3703   12.1966 C.ar    1  UNL1        0.1026
     28 C          64.4813   91.6542   12.1989 C.ar    1  UNL1        0.0167
     29 N          66.1518   93.2890   11.0645 N.ar    1  UNL1       -0.1478
     30 N          65.6049   94.6685   10.8455 N.ar    1  UNL1       -0.1447
     31 C          66.2281   95.2217    9.5983 C.ar    1  UNL1        0.1446
     32 C          67.1602   94.1841    9.0464 C.ar    1  UNL1        0.1446
     33 N          67.1131   92.9897    9.9526 N.ar    1  UNL1       -0.1447
@<TRIPOS>BOND
     1    20    21    1
     2     1    21    1
     3     1     2    1
     4     2     3    1
     5     3     4   am
     6     4     5    2
     7     4     9    1
     8     9    10   ar
     9    10    11   ar
    10    11    12   ar
    11    12    13   ar
    12    13    14   ar
    13    14    15    1
    14    15    16   ar
    15    16    17   ar
    16    17    18   ar
    17    18    19   ar
    18     3     6    1
    19     6    22    1
    20    22    23    1
    21    23    24   ar
    22    24    25   ar
    23    25    26   ar
    24    26    27   ar
    25    27    29    1
    26    29    30   ar
    27    30    31   ar
    28    31    32   ar
    29    32    33   ar
    30    27    28   ar
    31     6     7    1
    32     7     8    1
    33     8     1    1
    34    14     9   ar
    35    19    15   ar
    36    28    23   ar
    37    33    29   ar
@<TRIPOS>MOLECULE
*****
 33 37 0 0 0
SMALL
GASTEIGER

@<TRIPOS>ATOM
      1 C          64.0269   85.5613   13.8201 C.3     1  UNL1        0.1350
      2 C          63.3724   86.2915   12.6851 C.3     1  UNL1        0.1231
      3 N          63.3357   87.7910   12.6798 N.am    1  UNL1       -0.2724
      4 C          62.6811   88.5212   11.5446 C.2     1  UNL1        0.2506
      5 O          62.6445   90.0208   11.5393 O.2     1  UNL1       -0.2699
      6 C          63.9536   88.5604   13.8095 C.3     1  UNL1        0.1096
      7 C          64.6081   87.8302   14.9445 C.3     1  UNL1        0.1621
      8 O          64.6448   86.3307   14.9498 O.3     1  UNL1       -0.3527
      9 C          62.0632   87.7519   10.4149 C.ar    1  UNL1        0.0729
     10 C          62.8866   86.7661    9.6401 C.ar    1  UNL1        0.0061
     11 C          62.2686   85.9967    8.5104 C.ar    1  UNL1        0.0002
     12 C          60.8274   86.2132    8.1555 C.ar    1  UNL1        0.0016
     13 C          60.0041   87.1990    8.9303 C.ar    1  UNL1        0.0211
     14 C          60.6220   87.9683   10.0600 C.ar    1  UNL1        0.1072
     15 N          59.7986   88.9541   10.8347 N.ar    1  UNL1       -0.1477
     16 N          59.0441   88.6711   12.1000 N.ar    1  UNL1       -0.1447
     17 C          58.3644   89.9382   12.5275 C.ar    1  UNL1        0.1446
     18 C          58.6988   91.0041   11.5266 C.ar    1  UNL1        0.1446
     19 N          59.5852   90.3960   10.4804 N.ar    1  UNL1       -0.1447
     20 C          64.2352   83.3112   12.5382 C.3     1  UNL1        0.0026
     21 C          64.0636   84.0618   13.8255 C.3     1  UNL1        0.0313
     22 C          63.9169   90.0599   13.8041 C.3     1  UNL1        0.0488
     23 C          65.1960   90.8412   13.7461 C.ar    1  UNL1       -0.0189
     24 C          66.1258   90.8465   14.9232 C.ar    1  UNL1       -0.0041
     25 C          67.4049   91.6278   14.8652 C.ar    1  UNL1        0.0013
     26 C          67.7543   92.4039   13.6300 C.ar    1  UNL1        0.0209
     27 C          66.8246   92.3987   12.4529 C.ar    1  UNL1        0.1026
     28 C          65.5454   91.6173   12.5109 C.ar    1  UNL1        0.0167
     29 N          67.1740   93.1748   11.2178 N.ar    1  UNL1       -0.1478
     30 N          66.8873   94.6276   10.9788 N.ar    1  UNL1       -0.1447
     31 C          67.4076   94.9850    9.6181 C.ar    1  UNL1        0.1446
     32 C          68.0159   93.7531    9.0161 C.ar    1  UNL1        0.1446
     33 N          67.8715   92.6344   10.0048 N.ar    1  UNL1       -0.1447
@<TRIPOS>BOND
     1    20    21    1
     2     1    21    1
     3     1     2    1
     4     2     3    1
     5     3     4   am
     6     4     5    2
     7     4     9    1
     8     9    10   ar
     9    10    11   ar
    10    11    12   ar
    11    12    13   ar
    12    13    14   ar
    13    14    15    1
    14    15    16   ar
    15    16    17   ar
    16    17    18   ar
    17    18    19   ar
    18     3     6    1
    19     6    22    1
    20    22    23    1
    21    23    24   ar
    22    24    25   ar
    23    25    26   ar
    24    26    27   ar
    25    27    29    1
    26    29    30   ar
    27    30    31   ar
    28    31    32   ar
    29    32    33   ar
    30    27    28   ar
    31     6     7    1
    32     7     8    1
    33     8     1    1
    34    14     9   ar
    35    19    15   ar
    36    28    23   ar
    37    33    29   ar
@<TRIPOS>MOLECULE
*****
 33 37 0 0 0
SMALL
GASTEIGER

@<TRIPOS>ATOM
      1 C          63.0970   85.2597   13.6096 C.3     1  UNL1        0.1350
      2 C          62.6651   85.9926   12.3742 C.3     1  UNL1        0.1231
      3 N          63.0581   87.4267   12.1769 N.am    1  UNL1       -0.2724
      4 C          62.6262   88.1595   10.9413 C.2     1  UNL1        0.2506
      5 O          63.0191   89.5936   10.7441 O.2     1  UNL1       -0.2699
      6 C          63.8828   88.1280   13.2151 C.3     1  UNL1        0.1096
      7 C          64.3146   87.3952   14.4506 C.3     1  UNL1        0.1621
      8 O          63.9217   85.9610   14.6478 O.3     1  UNL1       -0.3527
      9 C          61.8014   87.4582    9.9031 C.ar    1  UNL1        0.0729
     10 C          62.4312   86.4241    9.0177 C.ar    1  UNL1        0.0061
     11 C          61.6064   85.7228    7.9795 C.ar    1  UNL1        0.0002
     12 C          60.1518   86.0556    7.8267 C.ar    1  UNL1        0.0016
     13 C          59.5220   87.0897    8.7121 C.ar    1  UNL1        0.0211
     14 C          60.3468   87.7910    9.7503 C.ar    1  UNL1        0.1072
     15 N          59.7169   88.8251   10.6357 N.ar    1  UNL1       -0.1477
     16 N          59.6067   90.2913   10.3385 N.ar    1  UNL1       -0.1447
     17 C          58.9084   90.9470   11.4929 C.ar    1  UNL1        0.1446
     18 C          58.5871   89.8860   12.5035 C.ar    1  UNL1        0.1446
     19 N          59.0868   88.5747   11.9737 N.ar    1  UNL1       -0.1447
     20 C          62.7392   82.8723   12.6494 C.3     1  UNL1        0.0026
     21 C          62.7040   83.8256   13.8069 C.3     1  UNL1        0.0313
     22 C          64.2757   89.5621   13.0178 C.3     1  UNL1        0.0488
     23 C          64.5800   90.4265   14.2053 C.ar    1  UNL1       -0.0189
     24 C          63.5751   90.5633   15.3106 C.ar    1  UNL1       -0.0041
     25 C          63.8793   91.4278   16.4981 C.ar    1  UNL1        0.0013
     26 C          65.1884   92.1554   16.5803 C.ar    1  UNL1        0.0209
     27 C          66.1933   92.0187   15.4751 C.ar    1  UNL1        0.1026
     28 C          65.8891   91.1542   14.2876 C.ar    1  UNL1        0.0167
     29 N          67.5024   92.7463   15.5574 N.ar    1  UNL1       -0.1478
     30 N          68.7419   92.4221   14.7774 N.ar    1  UNL1       -0.1447
     31 C          69.8074   93.4014   15.1720 C.ar    1  UNL1        0.1446
     32 C          69.2264   94.3308   16.1960 C.ar    1  UNL1        0.1446
     33 N          67.8018   93.9260   16.4342 N.ar    1  UNL1       -0.1447
@<TRIPOS>BOND
     1    20    21    1
     2     1    21    1
     3     1     2    1
     4     2     3    1
     5     3     4   am
     6     4     5    2
     7     4     9    1
     8     9    10   ar
     9    10    11   ar
    10    11    12   ar
    11    12    13   ar
    12    13    14   ar
    13    14    15    1
    14    15    16   ar
    15    16    17   ar
    16    17    18   ar
    17    18    19   ar
    18     3     6    1
    19     6    22    1
    20    22    23    1
    21    23    24   ar
    22    24    25   ar
    23    25    26   ar
    24    26    27   ar
    25    27    29    1
    26    29    30   ar
    27    30    31   ar
    28    31    32   ar
    29    32    33   ar
    30    27    28   ar
    31     6     7    1
    32     7     8    1
    33     8     1    1
    34    14     9   ar
    35    19    15   ar
    36    28    23   ar
    37    33    29   ar
@<TRIPOS>MOLECULE
*****
 33 37 0 0 0
SMALL
GASTEIGER

@<TRIPOS>ATOM
      1 C          63.1257   88.1719   16.9376 C.3     1  UNL1        0.1350
      2 C          63.1577   87.7480   15.4991 C.3     1  UNL1        0.1231
      3 N          63.3862   88.7665   14.4219 N.am    1  UNL1       -0.2724
      4 C          63.4183   88.3425   12.9834 C.2     1  UNL1        0.2506
      5 O          63.6468   89.3611   11.9062 O.2     1  UNL1       -0.2699
      6 C          63.5827   90.2090   14.7832 C.3     1  UNL1        0.1096
      7 C          63.5506   90.6329   16.2217 C.3     1  UNL1        0.1621
      8 O          63.3221   89.6144   17.2988 O.3     1  UNL1       -0.3527
      9 C          63.2218   86.9001   12.6221 C.ar    1  UNL1        0.0729
     10 C          64.0027   85.8355   13.3340 C.ar    1  UNL1        0.0061
     11 C          63.8062   84.3929   12.9727 C.ar    1  UNL1        0.0002
     12 C          62.8289   84.0150   11.8995 C.ar    1  UNL1        0.0016
     13 C          62.0479   85.0796   11.1875 C.ar    1  UNL1        0.0211
     14 C          62.2444   86.5221   11.5488 C.ar    1  UNL1        0.1072
     15 N          61.4634   87.5866   10.8369 N.ar    1  UNL1       -0.1477
     16 N          60.3961   88.4502   11.4413 N.ar    1  UNL1       -0.1447
     17 C          59.8858   89.3719   10.3735 C.ar    1  UNL1        0.1446
     18 C          60.6376   89.0779    9.1092 C.ar    1  UNL1        0.1446
     19 N          61.6126   87.9746    9.3957 N.ar    1  UNL1       -0.1447
     20 C          62.4561   85.7659   17.6536 C.3     1  UNL1        0.0026
     21 C          62.8972   87.1533   18.0147 C.3     1  UNL1        0.0313
     22 C          63.8112   91.2276   13.7060 C.3     1  UNL1        0.0488
     23 C          65.2057   91.6718   13.3775 C.ar    1  UNL1       -0.0189
     24 C          66.3508   91.2572   14.2533 C.ar    1  UNL1       -0.0041
     25 C          67.7453   91.7015   13.9248 C.ar    1  UNL1        0.0013
     26 C          67.9948   92.5604   12.7206 C.ar    1  UNL1        0.0209
     27 C          66.8497   92.9750   11.8449 C.ar    1  UNL1        0.1026
     28 C          65.4551   92.5307   12.1733 C.ar    1  UNL1        0.0167
     29 N          67.0992   93.8338   10.6407 N.ar    1  UNL1       -0.1478
     30 N          66.9946   95.3292   10.5873 N.ar    1  UNL1       -0.1447
     31 C          67.3278   95.7677    9.1920 C.ar    1  UNL1        0.1446
     32 C          67.6383   94.5433    8.3831 C.ar    1  UNL1        0.1446
     33 N          67.4970   93.3481    9.2784 N.ar    1  UNL1       -0.1447
@<TRIPOS>BOND
     1    20    21    1
     2     1    21    1
     3     1     2    1
     4     2     3    1
     5     3     4   am
     6     4     5    2
     7     4     9    1
     8     9    10   ar
     9    10    11   ar
    10    11    12   ar
    11    12    13   ar
    12    13    14   ar
    13    14    15    1
    14    15    16   ar
    15    16    17   ar
    16    17    18   ar
    17    18    19   ar
    18     3     6    1
    19     6    22    1
    20    22    23    1
    21    23    24   ar
    22    24    25   ar
    23    25    26   ar
    24    26    27   ar
    25    27    29    1
    26    29    30   ar
    27    30    31   ar
    28    31    32   ar
    29    32    33   ar
    30    27    28   ar
    31     6     7    1
    32     7     8    1
    33     8     1    1
    34    14     9   ar
    35    19    15   ar
    36    28    23   ar
    37    33    29   ar
@<TRIPOS>MOLECULE
*****
 33 37 0 0 0
SMALL
GASTEIGER

@<TRIPOS>ATOM
      1 C          63.9254   86.9483   14.0540 C.3     1  UNL1        0.1350
      2 C          64.1433   88.4323   14.0370 C.3     1  UNL1        0.1231
      3 N          63.6435   89.2506   12.8835 N.am    1  UNL1       -0.2724
      4 C          63.8615   90.7347   12.8666 C.2     1  UNL1        0.2506
      5 O          63.3617   91.5530   11.7131 O.2     1  UNL1       -0.2699
      6 C          62.9259   88.5850   11.7469 C.3     1  UNL1        0.1096
      7 C          62.7081   87.1010   11.7638 C.3     1  UNL1        0.1621
      8 O          63.2078   86.2827   12.9174 O.3     1  UNL1       -0.3527
      9 C          64.5791   91.4003   14.0032 C.ar    1  UNL1        0.0729
     10 C          64.1289   91.1656   15.4147 C.ar    1  UNL1        0.0061
     11 C          64.8465   91.8313   16.5513 C.ar    1  UNL1        0.0002
     12 C          66.0143   92.7317   16.2764 C.ar    1  UNL1        0.0016
     13 C          66.4645   92.9664   14.8650 C.ar    1  UNL1        0.0211
     14 C          65.7469   92.3007   13.7284 C.ar    1  UNL1        0.1072
     15 N          66.1971   92.5354   12.3169 N.ar    1  UNL1       -0.1477
     16 N          65.5024   93.3930   11.3009 N.ar    1  UNL1       -0.1447
     17 C          66.2971   93.3413   10.0297 C.ar    1  UNL1        0.1446
     18 C          67.4827   92.4518   10.2600 C.ar    1  UNL1        0.1446
     19 N          67.4210   91.9538   11.6735 N.ar    1  UNL1       -0.1447
     20 C          63.5571   85.9252   16.4135 C.3     1  UNL1        0.0026
     21 C          64.4251   86.1300   15.2075 C.3     1  UNL1        0.0313
     22 C          62.4262   89.4033   10.5934 C.3     1  UNL1        0.0488
     23 C          61.4208   88.8241    9.6428 C.ar    1  UNL1       -0.0189
     24 C          61.0021   87.3898    9.7760 C.ar    1  UNL1       -0.0041
     25 C          59.9967   86.8107    8.8255 C.ar    1  UNL1        0.0013
     26 C          59.4098   87.6657    7.7417 C.ar    1  UNL1        0.0209
     27 C          59.8284   89.0999    7.6085 C.ar    1  UNL1        0.1026
     28 C          60.8339   89.6791    8.5591 C.ar    1  UNL1        0.0167
     29 N          59.2415   89.9549    6.5248 N.ar    1  UNL1       -0.1478
     30 N          57.7799   90.1519    6.2513 N.ar    1  UNL1       -0.1447
     31 C          57.6482   91.0818    5.0817 C.ar    1  UNL1        0.1446
     32 C          59.0286   91.4597    4.6324 C.ar    1  UNL1        0.1446
     33 N          60.0132   90.7632    5.5242 N.ar    1  UNL1       -0.1447
@<TRIPOS>BOND
     1    20    21    1
     2     1    21    1
     3     1     2    1
     4     2     3    1
     5     3     4   am
     6     4     5    2
     7     4     9    1
     8     9    10   ar
     9    10    11   ar
    10    11    12   ar
    11    12    13   ar
    12    13    14   ar
    13    14    15    1
    14    15    16   ar
    15    16    17   ar
    16    17    18   ar
    17    18    19   ar
    18     3     6    1
    19     6    22    1
    20    22    23    1
    21    23    24   ar
    22    24    25   ar
    23    25    26   ar
    24    26    27   ar
    25    27    29    1
    26    29    30   ar
    27    30    31   ar
    28    31    32   ar
    29    32    33   ar
    30    27    28   ar
    31     6     7    1
    32     7     8    1
    33     8     1    1
    34    14     9   ar
    35    19    15   ar
    36    28    23   ar
    37    33    29   ar
