@<TRIPOS>MOLECULE
*****
 30 33 0 0 0
SMALL
GASTEIGER

@<TRIPOS>ATOM
      1 C          63.2185   88.5040   12.4020 C.ar    1  UNL1        0.1708
      2 N          63.4154   87.1371   12.9875 N.ar    1  UNL1       -0.1943
      3 C          62.7116   85.9559   12.3880 C.ar    1  UNL1        0.2240
      4 N          61.8109   86.1415   11.2031 N.ar    1  UNL1       -0.1807
      5 C          61.6139   87.5084   10.6176 C.ar    1  UNL1        0.2240
      6 N          62.3177   88.6896   11.2170 N.ar    1  UNL1       -0.1943
      7 N          66.0337   93.2289   14.7998 N.pl3   1  UNL1       -0.3275
      8 C          65.3299   92.0477   14.2003 C.ar    1  UNL1        0.2136
      9 N          64.7772   92.1310   12.8084 N.ar    1  UNL1       -0.2124
     10 C          64.0734   90.9497   12.2089 C.ar    1  UNL1        0.1062
     11 C          63.9223   89.6852   13.0014 C.ar    1  UNL1        0.0742
     12 C          64.4749   89.6019   14.3934 C.ar    1  UNL1        0.1322
     13 N          65.1787   90.7832   14.9928 N.ar    1  UNL1       -0.2127
     14 H          66.1329   94.0589   14.2796 H       1  UNL1        0.1452
     15 H          66.3964   93.1743   15.7134 H       1  UNL1        0.1452
     16 C          64.3238   88.3374   15.1860 C.3     1  UNL1        0.3584
     17 F          65.2163   87.1650   14.9051 F       1  UNL1       -0.1915
     18 F          63.2801   88.2453   16.2594 F       1  UNL1       -0.1915
     19 N          62.9086   84.5890   12.9736 N.pl3   1  UNL1       -0.2729
     20 C          62.7242   83.3721   12.1162 C.3     1  UNL1        0.1257
     21 C          62.9212   82.0052   12.7018 C.3     1  UNL1        0.1637
     22 O          63.3025   81.8552   14.1447 O.3     1  UNL1       -0.3501
     23 C          63.4869   83.0722   15.0021 C.3     1  UNL1        0.1637
     24 C          63.2900   84.4390   14.4165 C.3     1  UNL1        0.1257
     25 N          60.7131   87.6941    9.4326 N.pl3   1  UNL1       -0.2729
     26 C          60.4470   89.0714    8.9013 C.3     1  UNL1        0.1257
     27 C          59.5463   89.2571    7.7164 C.3     1  UNL1        0.1637
     28 O          58.9116   88.0655    7.0626 O.3     1  UNL1       -0.3501
     29 C          59.1777   86.6882    7.5938 C.3     1  UNL1        0.1637
     30 C          60.0785   86.5025    8.7789 C.3     1  UNL1        0.1257
@<TRIPOS>BOND
     1     7     8    1
     2     8     9   ar
     3     9    10   ar
     4    10    11   ar
     5    11     1    1
     6     1     2   ar
     7     2     3   ar
     8     3    19    1
     9    19    20    1
    10    20    21    1
    11    21    22    1
    12    22    23    1
    13    23    24    1
    14     3     4   ar
    15     4     5   ar
    16     5    25    1
    17    25    26    1
    18    26    27    1
    19    27    28    1
    20    28    29    1
    21    29    30    1
    22     5     6   ar
    23    11    12   ar
    24    12    16    1
    25    16    17    1
    26    16    18    1
    27    12    13   ar
    28    13     8   ar
    29     6     1   ar
    30    24    19    1
    31    30    25    1
    32     7    14    1
    33     7    15    1
@<TRIPOS>MOLECULE
*****
 30 33 0 0 0
SMALL
GASTEIGER

@<TRIPOS>ATOM
      1 C          62.7669   85.9451   12.2753 C.ar    1  UNL1        0.1708
      2 N          63.4033   87.1232   12.9513 N.ar    1  UNL1       -0.1943
      3 C          63.1362   88.5110   12.4485 C.ar    1  UNL1        0.2240
      4 N          62.2325   88.7206   11.2698 N.ar    1  UNL1       -0.1807
      5 C          61.5961   87.5425   10.5938 C.ar    1  UNL1        0.2240
      6 N          61.8632   86.1548   11.0966 N.ar    1  UNL1       -0.1943
      7 N          63.8356   80.3942   14.2864 N.pl3   1  UNL1       -0.3275
      8 C          63.5684   81.7819   13.7836 C.ar    1  UNL1        0.2136
      9 N          62.9398   81.9836   12.4367 N.ar    1  UNL1       -0.2124
     10 C          62.6727   83.3713   11.9340 C.ar    1  UNL1        0.1062
     11 C          63.0341   84.5574   12.7781 C.ar    1  UNL1        0.0742
     12 C          63.6626   84.3557   14.1250 C.ar    1  UNL1        0.1322
     13 N          63.9298   82.9680   14.6278 N.ar    1  UNL1       -0.2127
     14 H          63.5984   79.6157   13.7324 H       1  UNL1        0.1452
     15 H          64.2481   80.2618   15.1704 H       1  UNL1        0.1452
     16 C          64.0240   85.5418   14.9692 C.3     1  UNL1        0.3584
     17 F          63.0347   86.0909   15.9539 F       1  UNL1       -0.1915
     18 F          65.3748   86.1787   14.8287 F       1  UNL1       -0.1915
     19 N          63.7727   89.6891   13.1245 N.pl3   1  UNL1       -0.2729
     20 C          63.9598   89.6890   14.6128 C.3     1  UNL1        0.1257
     21 C          64.5963   90.8671   15.2888 C.3     1  UNL1        0.1637
     22 O          65.0457   92.0453   14.4765 O.3     1  UNL1       -0.3501
     23 C          64.8586   92.0454   12.9881 C.3     1  UNL1        0.1637
     24 C          64.2221   90.8673   12.3122 C.3     1  UNL1        0.1257
     25 N          60.6924   87.7522    9.4150 N.pl3   1  UNL1       -0.2729
     26 C          60.4732   89.1341    8.8744 C.3     1  UNL1        0.1257
     27 C          59.5695   89.3437    7.6957 C.3     1  UNL1        0.1637
     28 O          58.8850   88.1714    7.0575 O.3     1  UNL1       -0.3501
     29 C          59.1042   86.7895    7.5981 C.3     1  UNL1        0.1637
     30 C          60.0079   86.5799    8.7769 C.3     1  UNL1        0.1257
@<TRIPOS>BOND
     1     7     8    1
     2     8     9   ar
     3     9    10   ar
     4    10    11   ar
     5    11     1    1
     6     1     2   ar
     7     2     3   ar
     8     3    19    1
     9    19    20    1
    10    20    21    1
    11    21    22    1
    12    22    23    1
    13    23    24    1
    14     3     4   ar
    15     4     5   ar
    16     5    25    1
    17    25    26    1
    18    26    27    1
    19    27    28    1
    20    28    29    1
    21    29    30    1
    22     5     6   ar
    23    11    12   ar
    24    12    16    1
    25    16    17    1
    26    16    18    1
    27    12    13   ar
    28    13     8   ar
    29     6     1   ar
    30    24    19    1
    31    30    25    1
    32     7    14    1
    33     7    15    1
@<TRIPOS>MOLECULE
*****
 30 33 0 0 0
SMALL
GASTEIGER

@<TRIPOS>ATOM
      1 C          63.2470   88.5943   12.4069 C.ar    1  UNL1        0.1708
      2 N          62.3394   88.7665   11.2251 N.ar    1  UNL1       -0.1943
      3 C          61.6266   87.5798   10.6476 C.ar    1  UNL1        0.2240
      4 N          61.8213   86.2208   11.2519 N.ar    1  UNL1       -0.1807
      5 C          62.7289   86.0486   12.4337 C.ar    1  UNL1        0.2240
      6 N          63.4417   87.2353   13.0112 N.ar    1  UNL1       -0.1943
      7 N          66.0984   93.3413   14.7168 N.pl3   1  UNL1       -0.3275
      8 C          65.3855   92.1545   14.1393 C.ar    1  UNL1        0.2136
      9 N          64.8362   92.2151   12.7449 N.ar    1  UNL1       -0.2124
     10 C          64.1233   91.0283   12.1674 C.ar    1  UNL1        0.1062
     11 C          63.9598   89.7810   12.9844 C.ar    1  UNL1        0.0742
     12 C          64.5092   89.7205   14.3788 C.ar    1  UNL1        0.1322
     13 N          65.2220   90.9072   14.9563 N.ar    1  UNL1       -0.2127
     14 H          66.2057   94.1599   14.1806 H       1  UNL1        0.1452
     15 H          66.4589   93.3015   15.6320 H       1  UNL1        0.1452
     16 C          64.3457   88.4732   15.1959 C.3     1  UNL1        0.3584
     17 F          63.3220   88.4228   16.2911 F       1  UNL1       -0.1915
     18 F          65.2059   87.2762   14.9176 F       1  UNL1       -0.1915
     19 N          60.7190   87.7520    9.4658 N.pl3   1  UNL1       -0.2729
     20 C          60.4690   89.1207    8.9054 C.3     1  UNL1        0.1257
     21 C          59.5614   89.2930    7.7236 C.3     1  UNL1        0.1637
     22 O          58.9038   88.0966    7.1022 O.3     1  UNL1       -0.3501
     23 C          59.1539   86.7278    7.6627 C.3     1  UNL1        0.1637
     24 C          60.0614   86.5556    8.8445 C.3     1  UNL1        0.1257
     25 N          62.9237   84.6895   13.0380 N.pl3   1  UNL1       -0.2729
     26 C          62.7121   83.4606   12.2043 C.3     1  UNL1        0.1257
     27 C          62.9069   82.1017   12.8086 C.3     1  UNL1        0.1637
     28 O          63.3132   81.9715   14.2467 O.3     1  UNL1       -0.3501
     29 C          63.5247   83.2004   15.0804 C.3     1  UNL1        0.1637
     30 C          63.3299   84.5594   14.4761 C.3     1  UNL1        0.1257
@<TRIPOS>BOND
     1     7     8    1
     2     8     9   ar
     3     9    10   ar
     4    10    11   ar
     5    11     1    1
     6     1     2   ar
     7     2     3   ar
     8     3    19    1
     9    19    20    1
    10    20    21    1
    11    21    22    1
    12    22    23    1
    13    23    24    1
    14     3     4   ar
    15     4     5   ar
    16     5    25    1
    17    25    26    1
    18    26    27    1
    19    27    28    1
    20    28    29    1
    21    29    30    1
    22     5     6   ar
    23    11    12   ar
    24    12    16    1
    25    16    17    1
    26    16    18    1
    27    12    13   ar
    28    13     8   ar
    29     6     1   ar
    30    24    19    1
    31    30    25    1
    32     7    14    1
    33     7    15    1
@<TRIPOS>MOLECULE
*****
 30 33 0 0 0
SMALL
GASTEIGER

@<TRIPOS>ATOM
      1 C          62.7663   85.9448   12.2772 C.ar    1  UNL1        0.1708
      2 N          61.8628   86.1548   11.0984 N.ar    1  UNL1       -0.1943
      3 C          61.5959   87.5426   10.5958 C.ar    1  UNL1        0.2240
      4 N          62.2326   88.7205   11.2719 N.ar    1  UNL1       -0.1807
      5 C          63.1361   88.5105   12.4507 C.ar    1  UNL1        0.2240
      6 N          63.4030   87.1227   12.9533 N.ar    1  UNL1       -0.1943
      7 N          63.8338   80.3933   14.2876 N.pl3   1  UNL1       -0.3275
      8 C          63.5669   81.7812   13.7850 C.ar    1  UNL1        0.2136
      9 N          62.9384   81.9832   12.4381 N.ar    1  UNL1       -0.2124
     10 C          62.6715   83.3710   11.9355 C.ar    1  UNL1        0.1062
     11 C          63.0332   84.5569   12.7798 C.ar    1  UNL1        0.0742
     12 C          63.6617   84.3550   14.1266 C.ar    1  UNL1        0.1322
     13 N          63.9286   82.9671   14.6293 N.ar    1  UNL1       -0.2127
     14 H          63.5964   79.6150   13.7335 H       1  UNL1        0.1452
     15 H          64.2463   80.2608   15.1716 H       1  UNL1        0.1452
     16 C          64.0234   85.5409   14.9710 C.3     1  UNL1        0.3584
     17 F          63.0344   86.0897   15.9562 F       1  UNL1       -0.1915
     18 F          65.3740   86.1780   14.8300 F       1  UNL1       -0.1915
     19 N          60.6923   87.7526    9.4170 N.pl3   1  UNL1       -0.2729
     20 C          60.4724   89.1347    8.8773 C.3     1  UNL1        0.1257
     21 C          59.5688   89.3446    7.6985 C.3     1  UNL1        0.1637
     22 O          58.8852   88.1724    7.0594 O.3     1  UNL1       -0.3501
     23 C          59.1052   86.7902    7.5991 C.3     1  UNL1        0.1637
     24 C          60.0087   86.5803    8.7779 C.3     1  UNL1        0.1257
     25 N          63.7728   89.6885   13.1269 N.pl3   1  UNL1       -0.2729
     26 C          63.9541   89.6908   14.6159 C.3     1  UNL1        0.1257
     27 C          64.5907   90.8686   15.2921 C.3     1  UNL1        0.1637
     28 O          65.0462   92.0442   14.4793 O.3     1  UNL1       -0.3501
     29 C          64.8650   92.0419   12.9903 C.3     1  UNL1        0.1637
     30 C          64.2282   90.8640   12.3141 C.3     1  UNL1        0.1257
@<TRIPOS>BOND
     1     7     8    1
     2     8     9   ar
     3     9    10   ar
     4    10    11   ar
     5    11     1    1
     6     1     2   ar
     7     2     3   ar
     8     3    19    1
     9    19    20    1
    10    20    21    1
    11    21    22    1
    12    22    23    1
    13    23    24    1
    14     3     4   ar
    15     4     5   ar
    16     5    25    1
    17    25    26    1
    18    26    27    1
    19    27    28    1
    20    28    29    1
    21    29    30    1
    22     5     6   ar
    23    11    12   ar
    24    12    16    1
    25    16    17    1
    26    16    18    1
    27    12    13   ar
    28    13     8   ar
    29     6     1   ar
    30    24    19    1
    31    30    25    1
    32     7    14    1
    33     7    15    1
@<TRIPOS>MOLECULE
*****
 30 33 0 0 0
SMALL
GASTEIGER

@<TRIPOS>ATOM
      1 C          63.2625   88.3356   12.5238 C.ar    1  UNL1        0.1708
      2 N          63.4778   86.9647   13.0931 N.ar    1  UNL1       -0.1943
      3 C          62.8077   85.7783   12.4658 C.ar    1  UNL1        0.2240
      4 N          61.9224   85.9629   11.2691 N.ar    1  UNL1       -0.1807
      5 C          61.7071   87.3338   10.6998 C.ar    1  UNL1        0.2240
      6 N          62.3771   88.5202   11.3272 N.ar    1  UNL1       -0.1943
      7 N          65.9428   93.0811   15.0331 N.pl3   1  UNL1       -0.3275
      8 C          65.2727   91.8947   14.4058 C.ar    1  UNL1        0.2136
      9 N          65.3641   90.5484   15.0609 N.ar    1  UNL1       -0.2124
     10 C          64.6940   89.3621   14.4335 C.ar    1  UNL1        0.1062
     11 C          63.9326   89.5220   13.1511 C.ar    1  UNL1        0.0742
     12 C          63.8412   90.8683   12.4961 C.ar    1  UNL1        0.1322
     13 N          64.5113   92.0546   13.1234 N.ar    1  UNL1       -0.2127
     14 H          66.4426   92.9761   15.8748 H       1  UNL1        0.1452
     15 H          65.8828   93.9647   14.6032 H       1  UNL1        0.1452
     16 C          63.0797   91.0282   11.2136 C.3     1  UNL1        0.3584
     17 F          61.5900   91.2008   11.2424 F       1  UNL1       -0.1915
     18 F          63.8081   91.0156    9.9024 F       1  UNL1       -0.1915
     19 N          63.0231   84.4073   13.0352 N.pl3   1  UNL1       -0.2729
     20 C          62.4235   84.0432   14.3610 C.3     1  UNL1        0.1257
     21 C          62.6389   82.6722   14.9304 C.3     1  UNL1        0.1637
     22 O          63.4538   81.6655   14.1739 O.3     1  UNL1       -0.3501
     23 C          64.0534   82.0297   12.8480 C.3     1  UNL1        0.1637
     24 C          63.8380   83.4006   12.2787 C.3     1  UNL1        0.1257
     25 N          60.8217   87.5184    9.5031 N.pl3   1  UNL1       -0.2729
     26 C          60.5000   88.8995    9.0141 C.3     1  UNL1        0.1257
     27 C          59.6147   89.0842    7.8174 C.3     1  UNL1        0.1637
     28 O          59.0509   87.8877    7.1098 O.3     1  UNL1       -0.3501
     29 C          59.3726   86.5066    7.5988 C.3     1  UNL1        0.1637
     30 C          60.2580   86.3220    8.7955 C.3     1  UNL1        0.1257
@<TRIPOS>BOND
     1     7     8    1
     2     8     9   ar
     3     9    10   ar
     4    10    11   ar
     5    11     1    1
     6     1     2   ar
     7     2     3   ar
     8     3    19    1
     9    19    20    1
    10    20    21    1
    11    21    22    1
    12    22    23    1
    13    23    24    1
    14     3     4   ar
    15     4     5   ar
    16     5    25    1
    17    25    26    1
    18    26    27    1
    19    27    28    1
    20    28    29    1
    21    29    30    1
    22     5     6   ar
    23    11    12   ar
    24    12    16    1
    25    16    17    1
    26    16    18    1
    27    12    13   ar
    28    13     8   ar
    29     6     1   ar
    30    24    19    1
    31    30    25    1
    32     7    14    1
    33     7    15    1
@<TRIPOS>MOLECULE
*****
 30 33 0 0 0
SMALL
GASTEIGER

@<TRIPOS>ATOM
      1 C          63.2541   88.3396   12.5153 C.ar    1  UNL1        0.1708
      2 N          62.3703   88.5234   11.3174 N.ar    1  UNL1       -0.1943
      3 C          61.6977   87.3372   10.6925 C.ar    1  UNL1        0.2240
      4 N          61.9089   85.9672   11.2655 N.ar    1  UNL1       -0.1807
      5 C          62.7928   85.7834   12.4634 C.ar    1  UNL1        0.2240
      6 N          63.4654   86.9696   13.0883 N.ar    1  UNL1       -0.1943
      7 N          65.9445   93.0846   15.0149 N.pl3   1  UNL1       -0.3275
      8 C          65.2719   91.8983   14.3900 C.ar    1  UNL1        0.2136
      9 N          65.3698   90.5510   15.0419 N.ar    1  UNL1       -0.2124
     10 C          64.6972   89.3648   14.4170 C.ar    1  UNL1        0.1062
     11 C          63.9267   89.5259   13.1402 C.ar    1  UNL1        0.0742
     12 C          63.8288   90.8732   12.4883 C.ar    1  UNL1        0.1322
     13 N          64.5014   92.0594   13.1132 N.ar    1  UNL1       -0.2127
     14 H          66.4502   92.9788   15.8529 H       1  UNL1        0.1452
     15 H          65.8802   93.9689   14.5870 H       1  UNL1        0.1452
     16 C          63.0583   91.0344   11.2114 C.3     1  UNL1        0.3584
     17 F          61.5684   91.2039   11.2507 F       1  UNL1       -0.1915
     18 F          63.7777   91.0260    9.8952 F       1  UNL1       -0.1915
     19 N          60.8138   87.5211    9.4946 N.pl3   1  UNL1       -0.2729
     20 C          60.4922   88.9018    9.0046 C.3     1  UNL1        0.1257
     21 C          59.6084   89.0856    7.8066 C.3     1  UNL1        0.1637
     22 O          59.0461   87.8887    7.0987 O.3     1  UNL1       -0.3501
     23 C          59.3677   86.5079    7.5887 C.3     1  UNL1        0.1637
     24 C          60.2516   86.3241    8.7866 C.3     1  UNL1        0.1257
     25 N          63.0041   84.4133   13.0365 N.pl3   1  UNL1       -0.2729
     26 C          63.7753   83.3868   12.2611 C.3     1  UNL1        0.1257
     27 C          63.9866   82.0168   12.8341 C.3     1  UNL1        0.1637
     28 O          63.4266   81.6733   14.1826 O.3     1  UNL1       -0.3501
     29 C          62.6554   82.6998   14.9581 C.3     1  UNL1        0.1637
     30 C          62.4441   84.0699   14.3850 C.3     1  UNL1        0.1257
@<TRIPOS>BOND
     1     7     8    1
     2     8     9   ar
     3     9    10   ar
     4    10    11   ar
     5    11     1    1
     6     1     2   ar
     7     2     3   ar
     8     3    19    1
     9    19    20    1
    10    20    21    1
    11    21    22    1
    12    22    23    1
    13    23    24    1
    14     3     4   ar
    15     4     5   ar
    16     5    25    1
    17    25    26    1
    18    26    27    1
    19    27    28    1
    20    28    29    1
    21    29    30    1
    22     5     6   ar
    23    11    12   ar
    24    12    16    1
    25    16    17    1
    26    16    18    1
    27    12    13   ar
    28    13     8   ar
    29     6     1   ar
    30    24    19    1
    31    30    25    1
    32     7    14    1
    33     7    15    1
@<TRIPOS>MOLECULE
*****
 30 33 0 0 0
SMALL
GASTEIGER

@<TRIPOS>ATOM
      1 C          62.2243   88.1003   11.3953 C.ar    1  UNL1        0.1708
      2 N          62.4892   86.7019   11.8688 N.ar    1  UNL1       -0.1943
      3 C          63.3400   86.4695   13.0821 C.ar    1  UNL1        0.2240
      4 N          63.9259   87.6355   13.8219 N.ar    1  UNL1       -0.1807
      5 C          63.6610   89.0338   13.3483 C.ar    1  UNL1        0.2240
      6 N          62.8102   89.2662   12.1350 N.ar    1  UNL1       -0.1943
      7 N          58.8210   89.0300    6.5421 N.pl3   1  UNL1       -0.3275
      8 C          59.6718   88.7975    7.7554 C.ar    1  UNL1        0.2136
      9 N          59.7705   89.8539    8.8157 N.ar    1  UNL1       -0.2124
     10 C          60.6214   89.6215   10.0290 C.ar    1  UNL1        0.1062
     11 C          61.3735   88.3327   10.1820 C.ar    1  UNL1        0.0742
     12 C          61.2747   87.2764    9.1216 C.ar    1  UNL1        0.1322
     13 N          60.4239   87.5088    7.9083 N.ar    1  UNL1       -0.2127
     14 H          58.3274   89.8758    6.4417 H       1  UNL1        0.1452
     15 H          58.7562   88.3366    5.8461 H       1  UNL1        0.1452
     16 C          62.0268   85.9875    9.2745 C.3     1  UNL1        0.3584
     17 F          61.5132   84.9247   10.1999 F       1  UNL1       -0.1915
     18 F          63.2926   85.7617    8.5020 F       1  UNL1       -0.1915
     19 N          63.6049   85.0710   13.5557 N.pl3   1  UNL1       -0.2729
     20 C          63.7965   83.9657   12.5600 C.3     1  UNL1        0.1257
     21 C          64.0615   82.5672   13.0335 C.3     1  UNL1        0.1637
     22 O          64.1348   82.2742   14.5028 O.3     1  UNL1       -0.3501
     23 C          63.9432   83.3796   15.4985 C.3     1  UNL1        0.1637
     24 C          63.6783   84.7780   15.0250 C.3     1  UNL1        0.1257
     25 N          64.2469   90.1999   14.0880 N.pl3   1  UNL1       -0.2729
     26 C          63.8115   90.4918   15.4934 C.3     1  UNL1        0.1257
     27 C          64.3973   91.6578   16.2332 C.3     1  UNL1        0.1637
     28 O          65.4186   92.5319   15.5675 O.3     1  UNL1       -0.3501
     29 C          65.8539   92.2400   14.1621 C.3     1  UNL1        0.1637
     30 C          65.2681   91.0739   13.4223 C.3     1  UNL1        0.1257
@<TRIPOS>BOND
     1     7     8    1
     2     8     9   ar
     3     9    10   ar
     4    10    11   ar
     5    11     1    1
     6     1     2   ar
     7     2     3   ar
     8     3    19    1
     9    19    20    1
    10    20    21    1
    11    21    22    1
    12    22    23    1
    13    23    24    1
    14     3     4   ar
    15     4     5   ar
    16     5    25    1
    17    25    26    1
    18    26    27    1
    19    27    28    1
    20    28    29    1
    21    29    30    1
    22     5     6   ar
    23    11    12   ar
    24    12    16    1
    25    16    17    1
    26    16    18    1
    27    12    13   ar
    28    13     8   ar
    29     6     1   ar
    30    24    19    1
    31    30    25    1
    32     7    14    1
    33     7    15    1
@<TRIPOS>MOLECULE
*****
 30 33 0 0 0
SMALL
GASTEIGER

@<TRIPOS>ATOM
      1 C          62.2421   88.0814   11.4122 C.ar    1  UNL1        0.1708
      2 N          62.8250   89.2449   12.1581 N.ar    1  UNL1       -0.1943
      3 C          63.6739   89.0084   13.3719 C.ar    1  UNL1        0.2240
      4 N          63.9400   87.6084   13.8399 N.ar    1  UNL1       -0.1807
      5 C          63.3571   86.4448   13.0939 C.ar    1  UNL1        0.2240
      6 N          62.5082   86.6814   11.8801 N.ar    1  UNL1       -0.1943
      7 N          58.8465   89.0275    6.5568 N.pl3   1  UNL1       -0.3275
      8 C          59.6954   88.7910    7.7707 C.ar    1  UNL1        0.2136
      9 N          59.7919   89.8434    8.8351 N.ar    1  UNL1       -0.2124
     10 C          60.6408   89.6069   10.0489 C.ar    1  UNL1        0.1062
     11 C          61.3932   88.3179   10.1984 C.ar    1  UNL1        0.0742
     12 C          61.2968   87.2655    9.1339 C.ar    1  UNL1        0.1322
     13 N          60.4479   87.5020    7.9201 N.ar    1  UNL1       -0.2127
     14 H          58.3526   89.8735    6.4588 H       1  UNL1        0.1452
     15 H          58.7832   88.3367    5.8582 H       1  UNL1        0.1452
     16 C          62.0493   85.9765    9.2833 C.3     1  UNL1        0.3584
     17 F          61.5446   84.9174   10.2180 F       1  UNL1       -0.1915
     18 F          63.3064   85.7466    8.4980 F       1  UNL1       -0.1915
     19 N          64.2568   90.1721   14.1179 N.pl3   1  UNL1       -0.2729
     20 C          65.3088   91.0251   13.4734 C.3     1  UNL1        0.1257
     21 C          65.8917   92.1887   14.2193 C.3     1  UNL1        0.1637
     22 O          65.4224   92.4992   15.6097 O.3     1  UNL1       -0.3501
     23 C          64.3702   91.6462   16.2542 C.3     1  UNL1        0.1637
     24 C          63.7874   90.4826   15.5083 C.3     1  UNL1        0.1257
     25 N          63.6232   85.0447   13.5619 N.pl3   1  UNL1       -0.2729
     26 C          63.8357   83.9473   12.5616 C.3     1  UNL1        0.1257
     27 C          64.1017   82.5472   13.0294 C.3     1  UNL1        0.1637
     28 O          64.1553   82.2444   14.4976 O.3     1  UNL1       -0.3501
     29 C          63.9429   83.3418   15.4979 C.3     1  UNL1        0.1637
     30 C          63.6768   84.7420   15.0300 C.3     1  UNL1        0.1257
@<TRIPOS>BOND
     1     7     8    1
     2     8     9   ar
     3     9    10   ar
     4    10    11   ar
     5    11     1    1
     6     1     2   ar
     7     2     3   ar
     8     3    19    1
     9    19    20    1
    10    20    21    1
    11    21    22    1
    12    22    23    1
    13    23    24    1
    14     3     4   ar
    15     4     5   ar
    16     5    25    1
    17    25    26    1
    18    26    27    1
    19    27    28    1
    20    28    29    1
    21    29    30    1
    22     5     6   ar
    23    11    12   ar
    24    12    16    1
    25    16    17    1
    26    16    18    1
    27    12    13   ar
    28    13     8   ar
    29     6     1   ar
    30    24    19    1
    31    30    25    1
    32     7    14    1
    33     7    15    1
@<TRIPOS>MOLECULE
*****
 30 33 0 0 0
SMALL
GASTEIGER

@<TRIPOS>ATOM
      1 C          62.1788   87.8190   11.3034 C.ar    1  UNL1        0.1708
      2 N          62.4573   86.4133   11.7465 N.ar    1  UNL1       -0.1943
      3 C          63.2804   86.1634   12.9753 C.ar    1  UNL1        0.2240
      4 N          63.8249   87.3192   13.7611 N.ar    1  UNL1       -0.1807
      5 C          63.5464   88.7249   13.3180 C.ar    1  UNL1        0.2240
      6 N          62.7233   88.9748   12.0892 N.ar    1  UNL1       -0.1943
      7 N          58.8864   88.8185    6.3880 N.pl3   1  UNL1       -0.3275
      8 C          59.7095   88.5687    7.6168 C.ar    1  UNL1        0.2136
      9 N          60.2847   87.2067    7.8701 N.ar    1  UNL1       -0.2124
     10 C          61.1078   86.9568    9.0990 C.ar    1  UNL1        0.1062
     11 C          61.3557   88.0689   10.0745 C.ar    1  UNL1        0.0742
     12 C          60.7805   89.4308    9.8213 C.ar    1  UNL1        0.1322
     13 N          59.9574   89.6807    8.5924 N.ar    1  UNL1       -0.2127
     14 H          58.7237   88.0886    5.7477 H       1  UNL1        0.1452
     15 H          58.5089   89.7125    6.2218 H       1  UNL1        0.1452
     16 C          61.0284   90.5430   10.7969 C.3     1  UNL1        0.3584
     17 F          62.2627   91.3865   10.6748 F       1  UNL1       -0.1915
     18 F          60.0419   90.8116   11.8945 F       1  UNL1       -0.1915
     19 N          63.5589   84.7576   13.4184 N.pl3   1  UNL1       -0.2729
     20 C          63.6717   84.4404   14.8801 C.3     1  UNL1        0.1257
     21 C          63.9502   83.0346   15.3232 C.3     1  UNL1        0.1637
     22 O          64.1159   81.9461   14.3045 O.3     1  UNL1       -0.3501
     23 C          64.0031   82.2634   12.8427 C.3     1  UNL1        0.1637
     24 C          63.7246   83.6691   12.3997 C.3     1  UNL1        0.1257
     25 N          64.0910   89.8809   14.1038 N.pl3   1  UNL1       -0.2729
     26 C          63.5856   90.1497   15.4902 C.3     1  UNL1        0.1257
     27 C          64.1301   91.3056   16.2760 C.3     1  UNL1        0.1637
     28 O          65.1801   92.1926   15.6753 O.3     1  UNL1       -0.3501
     29 C          65.6855   91.9237   14.2889 C.3     1  UNL1        0.1637
     30 C          65.1410   90.7678   13.5031 C.3     1  UNL1        0.1257
@<TRIPOS>BOND
     1     7     8    1
     2     8     9   ar
     3     9    10   ar
     4    10    11   ar
     5    11     1    1
     6     1     2   ar
     7     2     3   ar
     8     3    19    1
     9    19    20    1
    10    20    21    1
    11    21    22    1
    12    22    23    1
    13    23    24    1
    14     3     4   ar
    15     4     5   ar
    16     5    25    1
    17    25    26    1
    18    26    27    1
    19    27    28    1
    20    28    29    1
    21    29    30    1
    22     5     6   ar
    23    11    12   ar
    24    12    16    1
    25    16    17    1
    26    16    18    1
    27    12    13   ar
    28    13     8   ar
    29     6     1   ar
    30    24    19    1
    31    30    25    1
    32     7    14    1
    33     7    15    1
