@<TRIPOS>MOLECULE
*****
 42 46 0 0 0
SMALL
GASTEIGER

@<TRIPOS>ATOM
      1 C          61.7534   88.4815   11.3066 C.ar    1  UNL1        0.0040
      2 C          61.4574   87.3220   10.4022 C.ar    1  UNL1        0.0719
      3 C          62.1323   86.1082   10.9690 C.ar    1  UNL1        0.1049
      4 N          62.8453   86.5175   12.2236 N.ar    1  UNL1       -0.2242
      5 N          63.6775   85.7440   13.2029 N.ar    1  UNL1       -0.1422
      6 C          64.2756   86.4374   14.3909 C.ar    1  UNL1        0.2211
      7 N          64.0415   87.9043   14.5996 N.ar    1  UNL1       -0.2060
      8 C          63.2092   88.6777   13.6203 C.ar    1  UNL1        0.1515
      9 C          62.6112   87.9843   12.4323 C.ar    1  UNL1        0.1107
     10 C          60.6316   87.3682    9.1509 C.ar    1  UNL1        0.2525
     11 N          60.2426   86.1905    8.3072 N.ar    1  UNL1       -0.1057
     12 N          59.4204   86.6947    7.1584 N.ar    1  UNL1       -0.0923
     13 C          59.3013   88.1840    7.2920 C.ar    1  UNL1        0.3086
     14 O          60.0498   88.6002    8.5234 O.2     1  UNL1       -0.4048
     15 N          58.5632   89.0968    6.3582 N.pl3   1  UNL1       -0.2871
     16 H          57.6896   88.8263    5.9936 H       1  UNL1        0.1512
     17 C          59.1561   90.4216    5.9798 C.3     1  UNL1        0.0925
     18 C          58.5288   91.2404    4.8908 C.3     1  UNL1        0.0381
     19 C          57.0681   91.5762    4.9517 C.3     1  UNL1        0.0669
     20 N          56.0699   90.5180    5.3177 N.3     1  UNL1       -0.3211
     21 H          56.0505   89.8029    4.5906 H       1  UNL1        0.1189
     22 H          55.1449   90.9388    5.4054 H       1  UNL1        0.1189
     23 C          59.9104   90.2899   11.5953 C.3     1  UNL1        0.0047
     24 C          61.2755   89.8909   11.1184 C.3     1  UNL1        0.0241
     25 C          62.1626   90.9011   10.4535 C.3     1  UNL1        0.0047
     26 N          62.9751   90.1446   13.8290 N.pl3   1  UNL1       -0.2949
     27 H          62.0578   90.5020   13.8256 H       1  UNL1        0.1537
     28 C          64.1385   91.0668   14.0429 C.ar    1  UNL1        0.0775
     29 C          64.8336   91.6830   12.8650 C.ar    1  UNL1        0.0237
     30 C          65.9971   92.6052   13.0789 C.ar    1  UNL1        0.0821
     31 C          66.4655   92.9113   14.4706 C.ar    1  UNL1        0.1468
     32 F          67.6290   93.8336   14.6845 F       1  UNL1       -0.2039
     33 C          65.7705   92.2952   15.6484 C.ar    1  UNL1        0.0607
     34 C          64.6070   91.3729   15.4346 C.ar    1  UNL1        0.1557
     35 F          63.9119   90.7568   16.6124 F       1  UNL1       -0.2028
     36 C          66.6922   93.2214   11.9011 C.2     1  UNL1        0.2480
     37 O          67.8493   92.5150   11.2592 O.2     1  UNL1       -0.2701
     38 N          66.2301   94.5440   11.3652 N.am    1  UNL1       -0.3024
     39 H          65.4707   95.0076   11.7865 H       1  UNL1        0.1497
     40 C          66.9251   95.1602   10.1874 C.3     1  UNL1        0.0720
     41 C          67.7286   95.0117    8.9295 C.3     1  UNL1        0.0213
     42 C          67.3255   96.3759    9.4053 C.3     1  UNL1        0.0213
@<TRIPOS>BOND
     1    23    24    1
     2    24    25    1
     3    24     1    1
     4     1     2   ar
     5     2    10    1
     6    10    11   ar
     7    11    12   ar
     8    12    13   ar
     9    13    15    1
    10    15    17    1
    11    17    18    1
    12    18    19    1
    13    19    20    1
    14    13    14   ar
    15     2     3   ar
    16     3     4   ar
    17     4     5   ar
    18     5     6   ar
    19     6     7   ar
    20     7     8   ar
    21     8    26    1
    22    26    28    1
    23    28    29   ar
    24    29    30   ar
    25    30    36    1
    26    36    37    2
    27    36    38   am
    28    38    40    1
    29    40    41    1
    30    41    42    1
    31    30    31   ar
    32    31    32    1
    33    31    33   ar
    34    33    34   ar
    35    34    35    1
    36     8     9   ar
    37     9     1   ar
    38    14    10   ar
    39     9     4   ar
    40    34    28   ar
    41    42    40    1
    42    15    16    1
    43    20    21    1
    44    20    22    1
    45    26    27    1
    46    38    39    1
@<TRIPOS>MOLECULE
*****
 42 46 0 0 0
SMALL
GASTEIGER

@<TRIPOS>ATOM
      1 C          62.9717   86.5645   12.2467 C.ar    1  UNL1        0.0040
      2 C          62.7933   85.5678   11.1401 C.ar    1  UNL1        0.0719
      3 C          62.1957   86.2826    9.9645 C.ar    1  UNL1        0.1049
      4 N          62.0048   87.7210   10.3446 N.ar    1  UNL1       -0.2242
      5 N          61.4562   88.8946    9.5886 N.ar    1  UNL1       -0.1422
      6 C          61.3872   90.2425   10.2431 C.ar    1  UNL1        0.2211
      7 N          61.8668   90.4168   11.6536 N.ar    1  UNL1       -0.2060
      8 C          62.4154   89.2431   12.4096 C.ar    1  UNL1        0.1515
      9 C          62.4844   87.8953   11.7551 C.ar    1  UNL1        0.1107
     10 C          63.1499   84.1120   11.1987 C.ar    1  UNL1        0.2525
     11 N          64.2785   83.4505   10.4649 N.ar    1  UNL1       -0.1057
     12 N          64.2666   81.9917   10.8141 N.ar    1  UNL1       -0.0923
     13 C          63.1306   81.7517   11.7637 C.ar    1  UNL1        0.3086
     14 O          62.4404   83.0621   12.0014 O.2     1  UNL1       -0.4048
     15 N          62.7513   80.4328   12.3693 N.pl3   1  UNL1       -0.2871
     16 H          62.8214   79.6081   11.8363 H       1  UNL1        0.1512
     17 C          62.2650   80.3706   13.7870 C.3     1  UNL1        0.0925
     18 C          60.8690   80.8058   14.1207 C.3     1  UNL1        0.0381
     19 C          59.7543   79.8021   14.1374 C.3     1  UNL1        0.0669
     20 N          58.5031   80.0836   14.9155 N.3     1  UNL1       -0.3211
     21 H          58.7215   80.1128   15.9115 H       1  UNL1        0.1189
     22 H          57.8198   79.3473   14.7387 H       1  UNL1        0.1189
     23 C          63.0308   85.1137   14.4013 C.3     1  UNL1        0.0047
     24 C          63.5380   86.2804   13.6064 C.3     1  UNL1        0.0241
     25 C          64.6114   87.1628   14.1712 C.3     1  UNL1        0.0047
     26 N          62.8949   89.4174   13.8202 N.pl3   1  UNL1       -0.2949
     27 H          62.5529   88.8301   14.5325 H       1  UNL1        0.1537
     28 C          63.8956   90.4864   14.1455 C.ar    1  UNL1        0.0775
     29 C          64.6430   91.1750   13.0421 C.ar    1  UNL1        0.0237
     30 C          65.6437   92.2440   13.3674 C.ar    1  UNL1        0.0821
     31 C          65.8971   92.6244   14.7960 C.ar    1  UNL1        0.1468
     32 F          66.8978   93.6935   15.1213 F       1  UNL1       -0.2039
     33 C          65.1498   91.9359   15.8994 C.ar    1  UNL1        0.0607
     34 C          64.1491   90.8668   15.5741 C.ar    1  UNL1        0.1557
     35 F          63.4018   90.1783   16.6775 F       1  UNL1       -0.2028
     36 C          66.3910   92.9326   12.2640 C.2     1  UNL1        0.2480
     37 O          67.6951   92.3728   11.7783 O.2     1  UNL1       -0.2701
     38 N          65.8342   94.1809   11.6463 N.am    1  UNL1       -0.3024
     39 H          64.9782   94.5483   11.9651 H       1  UNL1        0.1497
     40 C          66.5814   94.8695   10.5430 C.3     1  UNL1        0.0720
     41 C          67.1196   96.1263    9.9259 C.3     1  UNL1        0.0213
     42 C          67.3375   94.8055    9.2491 C.3     1  UNL1        0.0213
@<TRIPOS>BOND
     1    23    24    1
     2    24    25    1
     3    24     1    1
     4     1     2   ar
     5     2    10    1
     6    10    11   ar
     7    11    12   ar
     8    12    13   ar
     9    13    15    1
    10    15    17    1
    11    17    18    1
    12    18    19    1
    13    19    20    1
    14    13    14   ar
    15     2     3   ar
    16     3     4   ar
    17     4     5   ar
    18     5     6   ar
    19     6     7   ar
    20     7     8   ar
    21     8    26    1
    22    26    28    1
    23    28    29   ar
    24    29    30   ar
    25    30    36    1
    26    36    37    2
    27    36    38   am
    28    38    40    1
    29    40    41    1
    30    41    42    1
    31    30    31   ar
    32    31    32    1
    33    31    33   ar
    34    33    34   ar
    35    34    35    1
    36     8     9   ar
    37     9     1   ar
    38    14    10   ar
    39     9     4   ar
    40    34    28   ar
    41    42    40    1
    42    15    16    1
    43    20    21    1
    44    20    22    1
    45    26    27    1
    46    38    39    1
