@<TRIPOS>MOLECULE
*****
 20 21 0 0 0
SMALL
GASTEIGER

@<TRIPOS>ATOM
      1 C          66.7198   92.7629   11.1873 C.ar    1  UNL1        0.1418
      2 C          65.4710   92.3596   10.4608 C.ar    1  UNL1        0.0371
      3 C          64.3480   91.7026   11.2072 C.ar    1  UNL1        0.0061
      4 C          64.4738   91.4488   12.6802 C.ar    1  UNL1        0.0371
      5 C          65.7225   91.8521   13.4067 C.ar    1  UNL1        0.1418
      6 C          66.8455   92.5091   12.6603 C.ar    1  UNL1        0.0737
      7 C          68.5077   92.7033    9.3032 C.3     1  UNL1        0.2525
      8 O          67.8428   93.4199   10.4409 O.3     1  UNL1       -0.4713
      9 C          63.0992   91.2993   10.4805 C.2     1  UNL1        0.0035
     10 C          62.2331   90.2041   11.0286 C.2     1  UNL1        0.0420
     11 C          60.9844   89.8009   10.3020 C.2     1  UNL1        0.1957
     12 O          59.7674   90.6761   10.3594 O.2     1  UNL1       -0.2866
     13 C          60.9524   88.5224    9.5181 C.ar    1  UNL1        0.0420
     14 C          59.8241   88.2538    8.5670 C.ar    1  UNL1        0.0239
     15 C          59.7922   86.9754    7.7831 C.ar    1  UNL1        0.0990
     16 N          60.8886   85.9655    7.9503 N.ar    1  UNL1       -0.2423
     17 C          62.0170   86.2341    8.9014 C.ar    1  UNL1        0.0990
     18 C          62.0489   87.5125    9.6853 C.ar    1  UNL1        0.0239
     19 O          65.8483   91.5983   14.8798 O.3     1  UNL1       -0.4713
     20 C          66.4836   92.6278   15.7666 C.3     1  UNL1        0.2525
@<TRIPOS>BOND
     1     7     8    1
     2     8     1    1
     3     1     2   ar
     4     2     3   ar
     5     3     9    1
     6     9    10    2
     7    10    11    1
     8    11    12    2
     9    11    13    1
    10    13    14   ar
    11    14    15   ar
    12    15    16   ar
    13    16    17   ar
    14    17    18   ar
    15     3     4   ar
    16     4     5   ar
    17     5    19    1
    18    19    20    1
    19     5     6   ar
    20     6     1   ar
    21    18    13   ar
@<TRIPOS>MOLECULE
*****
 20 21 0 0 0
SMALL
GASTEIGER

@<TRIPOS>ATOM
      1 C          61.5764   89.2612   10.4076 C.ar    1  UNL1        0.1418
      2 C          62.0328   87.9338   10.9363 C.ar    1  UNL1        0.0371
      3 C          61.5373   86.6654   10.3073 C.ar    1  UNL1        0.0061
      4 C          60.5853   86.7245    9.1496 C.ar    1  UNL1        0.0371
      5 C          60.1288   88.0519    8.6210 C.ar    1  UNL1        0.1418
      6 C          60.6244   89.3203    9.2500 C.ar    1  UNL1        0.0737
      7 C          63.3138   91.1899   10.5153 C.3     1  UNL1        0.2525
      8 O          62.0719   90.5296   11.0366 O.3     1  UNL1       -0.4713
      9 C          61.9937   85.3379   10.8360 C.2     1  UNL1        0.0035
     10 C          63.2485   84.7105   10.3052 C.2     1  UNL1        0.0420
     11 C          63.7050   83.3831   10.8338 C.2     1  UNL1        0.1957
     12 O          64.5558   82.4887    9.9815 O.2     1  UNL1       -0.2866
     13 C          63.3108   82.9500   12.2148 C.ar    1  UNL1        0.0420
     14 C          62.3831   81.7859   12.3995 C.ar    1  UNL1        0.0239
     15 C          61.9889   81.3528   13.7805 C.ar    1  UNL1        0.0990
     16 N          62.5224   82.0838   14.9767 N.ar    1  UNL1       -0.2423
     17 C          63.4502   83.2479   14.7920 C.ar    1  UNL1        0.0990
     18 C          63.8444   83.6810   13.4110 C.ar    1  UNL1        0.0239
     19 O          59.1768   88.1110    7.4633 O.3     1  UNL1       -0.4713
     20 C          59.1830   89.2986    6.5471 C.3     1  UNL1        0.2525
@<TRIPOS>BOND
     1     7     8    1
     2     8     1    1
     3     1     2   ar
     4     2     3   ar
     5     3     9    1
     6     9    10    2
     7    10    11    1
     8    11    12    2
     9    11    13    1
    10    13    14   ar
    11    14    15   ar
    12    15    16   ar
    13    16    17   ar
    14    17    18   ar
    15     3     4   ar
    16     4     5   ar
    17     5    19    1
    18    19    20    1
    19     5     6   ar
    20     6     1   ar
    21    18    13   ar
@<TRIPOS>MOLECULE
*****
 20 21 0 0 0
SMALL
GASTEIGER

@<TRIPOS>ATOM
      1 C          60.1279   88.0307    8.7592 C.ar    1  UNL1        0.1418
      2 C          60.6549   86.7604    9.3580 C.ar    1  UNL1        0.0371
      3 C          61.6491   86.8160   10.4798 C.ar    1  UNL1        0.0061
      4 C          62.1162   88.1418   11.0030 C.ar    1  UNL1        0.0371
      5 C          61.5893   89.4122   10.4043 C.ar    1  UNL1        0.1418
      6 C          60.5951   89.3566    9.2824 C.ar    1  UNL1        0.0737
      7 C          59.0080   89.1303    6.6888 C.3     1  UNL1        0.2525
      8 O          59.1338   87.9752    7.6374 O.3     1  UNL1       -0.4713
      9 C          62.1760   85.5455   11.0785 C.2     1  UNL1        0.0035
     10 C          63.1559   84.7060   10.3136 C.2     1  UNL1        0.0420
     11 C          63.6829   83.4356   10.9123 C.2     1  UNL1        0.1957
     12 O          64.4600   82.4728   10.0642 O.2     1  UNL1       -0.2866
     13 C          63.4328   83.1280   12.3589 C.ar    1  UNL1        0.0420
     14 C          64.2324   83.8209   13.4222 C.ar    1  UNL1        0.0239
     15 C          63.9823   83.5132   14.8688 C.ar    1  UNL1        0.0990
     16 N          62.9326   82.5128   15.2523 N.ar    1  UNL1       -0.2423
     17 C          62.1328   81.8199   14.1890 C.ar    1  UNL1        0.0990
     18 C          62.3829   82.1275   12.7424 C.ar    1  UNL1        0.0239
     19 O          62.0564   90.7382   10.9274 O.3     1  UNL1       -0.4713
     20 C          63.4238   91.2440   10.5747 C.3     1  UNL1        0.2525
@<TRIPOS>BOND
     1     7     8    1
     2     8     1    1
     3     1     2   ar
     4     2     3   ar
     5     3     9    1
     6     9    10    2
     7    10    11    1
     8    11    12    2
     9    11    13    1
    10    13    14   ar
    11    14    15   ar
    12    15    16   ar
    13    16    17   ar
    14    17    18   ar
    15     3     4   ar
    16     4     5   ar
    17     5    19    1
    18    19    20    1
    19     5     6   ar
    20     6     1   ar
    21    18    13   ar
@<TRIPOS>MOLECULE
*****
 20 21 0 0 0
SMALL
GASTEIGER

@<TRIPOS>ATOM
      1 C          63.3045   82.2870   13.9650 C.ar    1  UNL1        0.1418
      2 C          62.8001   82.8829   12.6842 C.ar    1  UNL1        0.0371
      3 C          62.7452   84.3730   12.5208 C.ar    1  UNL1        0.0061
      4 C          63.1947   85.2671   13.6382 C.ar    1  UNL1        0.0371
      5 C          63.6990   84.6711   14.9189 C.ar    1  UNL1        0.1418
      6 C          63.7539   83.1811   15.0824 C.ar    1  UNL1        0.0737
      7 C          62.3599   79.9278   13.4243 C.3     1  UNL1        0.2525
      8 O          63.3593   80.7969   14.1284 O.3     1  UNL1       -0.4713
      9 C          62.2409   84.9689   11.2399 C.2     1  UNL1        0.0035
     10 C          63.0326   84.8097    9.9758 C.2     1  UNL1        0.0420
     11 C          62.5283   85.4056    8.6950 C.2     1  UNL1        0.1957
     12 O          62.9180   84.7975    7.3803 O.2     1  UNL1       -0.2866
     13 C          61.6343   86.6096    8.7288 C.ar    1  UNL1        0.0420
     14 C          62.0254   87.8117    9.5362 C.ar    1  UNL1        0.0239
     15 C          61.1314   89.0157    9.5699 C.ar    1  UNL1        0.0990
     16 N          59.8463   89.0176    8.7964 N.ar    1  UNL1       -0.2423
     17 C          59.4551   87.8154    7.9889 C.ar    1  UNL1        0.0990
     18 C          60.3491   86.6114    7.9551 C.ar    1  UNL1        0.0239
     19 O          64.1484   85.5652   16.0364 O.3     1  UNL1       -0.4713
     20 C          63.1476   86.1021   17.0162 C.3     1  UNL1        0.2525
@<TRIPOS>BOND
     1     7     8    1
     2     8     1    1
     3     1     2   ar
     4     2     3   ar
     5     3     9    1
     6     9    10    2
     7    10    11    1
     8    11    12    2
     9    11    13    1
    10    13    14   ar
    11    14    15   ar
    12    15    16   ar
    13    16    17   ar
    14    17    18   ar
    15     3     4   ar
    16     4     5   ar
    17     5    19    1
    18    19    20    1
    19     5     6   ar
    20     6     1   ar
    21    18    13   ar
@<TRIPOS>MOLECULE
*****
 20 21 0 0 0
SMALL
GASTEIGER

@<TRIPOS>ATOM
      1 C          63.6697   84.7101   14.9499 C.ar    1  UNL1        0.1418
      2 C          63.1869   85.3088   13.6620 C.ar    1  UNL1        0.0371
      3 C          62.7391   84.4173   12.5419 C.ar    1  UNL1        0.0061
      4 C          62.7739   82.9271   12.7096 C.ar    1  UNL1        0.0371
      5 C          63.2567   82.3285   13.9975 C.ar    1  UNL1        0.1418
      6 C          63.7045   83.2200   15.1176 C.ar    1  UNL1        0.0737
      7 C          63.1152   86.1366   17.0493 C.3     1  UNL1        0.2525
      8 O          64.1175   85.6016   16.0700 O.3     1  UNL1       -0.4713
      9 C          62.2563   85.0160   11.2540 C.2     1  UNL1        0.0035
     10 C          63.0158   84.7741    9.9834 C.2     1  UNL1        0.0420
     11 C          62.5331   85.3728    8.6955 C.2     1  UNL1        0.1957
     12 O          62.9691   84.7859    7.3857 O.2     1  UNL1       -0.2866
     13 C          61.6145   86.5584    8.7174 C.ar    1  UNL1        0.0420
     14 C          60.3108   86.5109    7.9772 C.ar    1  UNL1        0.0239
     15 C          59.3922   87.6965    7.9991 C.ar    1  UNL1        0.0990
     16 N          59.7773   88.9297    8.7612 N.ar    1  UNL1       -0.2423
     17 C          61.0811   88.9773    9.5015 C.ar    1  UNL1        0.0990
     18 C          61.9997   87.7917    9.4796 C.ar    1  UNL1        0.0239
     19 O          63.2916   80.8382   14.1652 O.3     1  UNL1       -0.4713
     20 C          62.4096   79.9675   13.3203 C.3     1  UNL1        0.2525
@<TRIPOS>BOND
     1     7     8    1
     2     8     1    1
     3     1     2   ar
     4     2     3   ar
     5     3     9    1
     6     9    10    2
     7    10    11    1
     8    11    12    2
     9    11    13    1
    10    13    14   ar
    11    14    15   ar
    12    15    16   ar
    13    16    17   ar
    14    17    18   ar
    15     3     4   ar
    16     4     5   ar
    17     5    19    1
    18    19    20    1
    19     5     6   ar
    20     6     1   ar
    21    18    13   ar
@<TRIPOS>MOLECULE
*****
 20 21 0 0 0
SMALL
GASTEIGER

@<TRIPOS>ATOM
      1 C          62.2719   85.4659   11.0102 C.ar    1  UNL1        0.1418
      2 C          62.6483   86.6863   11.7968 C.ar    1  UNL1        0.0371
      3 C          62.3185   88.0507   11.2679 C.ar    1  UNL1        0.0061
      4 C          61.6122   88.1946    9.9525 C.ar    1  UNL1        0.0371
      5 C          61.2358   86.9742    9.1659 C.ar    1  UNL1        0.1418
      6 C          61.5656   85.6098    9.6947 C.ar    1  UNL1        0.0737
      7 C          63.9194   83.4666   11.2063 C.3     1  UNL1        0.2525
      8 O          62.6018   84.1015   11.5390 O.3     1  UNL1       -0.4713
      9 C          62.6949   89.2712   12.0545 C.2     1  UNL1        0.0035
     10 C          63.5939   89.1460   13.2487 C.2     1  UNL1        0.0420
     11 C          63.9704   90.3664   14.0354 C.2     1  UNL1        0.1957
     12 O          63.2209   90.7120   15.2880 O.2     1  UNL1       -0.2866
     13 C          65.0963   91.2412   13.5695 C.ar    1  UNL1        0.0420
     14 C          64.9391   92.0685   12.3283 C.ar    1  UNL1        0.0239
     15 C          66.0650   92.9433   11.8624 C.ar    1  UNL1        0.0990
     16 N          67.3481   92.9908   12.6377 N.ar    1  UNL1       -0.2423
     17 C          67.5054   92.1635   13.8791 C.ar    1  UNL1        0.0990
     18 C          66.3795   91.2887   14.3450 C.ar    1  UNL1        0.0239
     19 O          60.5295   87.1180    7.8504 O.3     1  UNL1       -0.4713
     20 C          59.0488   86.8937    7.7656 C.3     1  UNL1        0.2525
@<TRIPOS>BOND
     1     7     8    1
     2     8     1    1
     3     1     2   ar
     4     2     3   ar
     5     3     9    1
     6     9    10    2
     7    10    11    1
     8    11    12    2
     9    11    13    1
    10    13    14   ar
    11    14    15   ar
    12    15    16   ar
    13    16    17   ar
    14    17    18   ar
    15     3     4   ar
    16     4     5   ar
    17     5    19    1
    18    19    20    1
    19     5     6   ar
    20     6     1   ar
    21    18    13   ar
@<TRIPOS>MOLECULE
*****
 20 21 0 0 0
SMALL
GASTEIGER

@<TRIPOS>ATOM
      1 C          65.2405   92.7635   11.7139 C.ar    1  UNL1        0.1418
      2 C          64.3570   91.5625   11.5499 C.ar    1  UNL1        0.0371
      3 C          64.1674   90.6092   12.6924 C.ar    1  UNL1        0.0061
      4 C          64.8613   90.8569   13.9989 C.ar    1  UNL1        0.0371
      5 C          65.7448   92.0579   14.1629 C.ar    1  UNL1        0.1418
      6 C          65.9344   93.0113   13.0204 C.ar    1  UNL1        0.0737
      7 C          66.8039   94.2098   10.2260 C.3     1  UNL1        0.2525
      8 O          65.4300   93.7169   10.5714 O.3     1  UNL1       -0.4713
      9 C          63.2838   89.4082   12.5283 C.2     1  UNL1        0.0035
     10 C          62.4146   89.2770   11.3128 C.2     1  UNL1        0.0420
     11 C          61.5311   88.0760   11.1487 C.2     1  UNL1        0.1957
     12 O          60.0728   88.1656   11.4885 O.2     1  UNL1       -0.2866
     13 C          62.1058   86.7853   10.6448 C.ar    1  UNL1        0.0420
     14 C          62.3867   85.6651   11.6019 C.ar    1  UNL1        0.0239
     15 C          62.9614   84.3744   11.0980 C.ar    1  UNL1        0.0990
     16 N          63.2552   84.2040    9.6370 N.ar    1  UNL1       -0.2423
     17 C          62.9743   85.3243    8.6798 C.ar    1  UNL1        0.0990
     18 C          62.3996   86.6150    9.1837 C.ar    1  UNL1        0.0239
     19 O          66.4388   92.3057   15.4695 O.3     1  UNL1       -0.4713
     20 C          67.6239   93.2235   15.5271 C.3     1  UNL1        0.2525
@<TRIPOS>BOND
     1     7     8    1
     2     8     1    1
     3     1     2   ar
     4     2     3   ar
     5     3     9    1
     6     9    10    2
     7    10    11    1
     8    11    12    2
     9    11    13    1
    10    13    14   ar
    11    14    15   ar
    12    15    16   ar
    13    16    17   ar
    14    17    18   ar
    15     3     4   ar
    16     4     5   ar
    17     5    19    1
    18    19    20    1
    19     5     6   ar
    20     6     1   ar
    21    18    13   ar
@<TRIPOS>MOLECULE
*****
 20 21 0 0 0
SMALL
GASTEIGER

@<TRIPOS>ATOM
      1 C          64.7813   91.6016   13.1791 C.ar    1  UNL1        0.1418
      2 C          64.8411   90.3802   14.0477 C.ar    1  UNL1        0.0371
      3 C          64.0815   89.1462   13.6600 C.ar    1  UNL1        0.0061
      4 C          63.2620   89.1337   12.4038 C.ar    1  UNL1        0.0371
      5 C          63.2022   90.3551   11.5352 C.ar    1  UNL1        0.1418
      6 C          63.9618   91.5891   11.9229 C.ar    1  UNL1        0.0737
      7 C          66.2720   93.6255   12.5220 C.3     1  UNL1        0.2525
      8 O          65.5409   92.8356   13.5668 O.3     1  UNL1       -0.4713
      9 C          64.1414   87.9247   14.5287 C.2     1  UNL1        0.0035
     10 C          63.8486   86.5743   13.9451 C.2     1  UNL1        0.0420
     11 C          63.9085   85.3529   14.8136 C.2     1  UNL1        0.1957
     12 O          64.3040   85.4764   16.2554 O.2     1  UNL1       -0.2866
     13 C          63.5730   84.0079   14.2406 C.ar    1  UNL1        0.0420
     14 C          62.4660   83.1922   14.8400 C.ar    1  UNL1        0.0239
     15 C          62.1305   81.8472   14.2669 C.ar    1  UNL1        0.0990
     16 N          62.9019   81.3179   13.0945 N.ar    1  UNL1       -0.2423
     17 C          64.0089   82.1335   12.4951 C.ar    1  UNL1        0.0990
     18 C          64.3445   83.4785   13.0681 C.ar    1  UNL1        0.0239
     19 O          62.3826   90.3426   10.2788 O.3     1  UNL1       -0.4713
     20 C          60.9074   90.0806   10.3483 C.3     1  UNL1        0.2525
@<TRIPOS>BOND
     1     7     8    1
     2     8     1    1
     3     1     2   ar
     4     2     3   ar
     5     3     9    1
     6     9    10    2
     7    10    11    1
     8    11    12    2
     9    11    13    1
    10    13    14   ar
    11    14    15   ar
    12    15    16   ar
    13    16    17   ar
    14    17    18   ar
    15     3     4   ar
    16     4     5   ar
    17     5    19    1
    18    19    20    1
    19     5     6   ar
    20     6     1   ar
    21    18    13   ar
@<TRIPOS>MOLECULE
*****
 20 21 0 0 0
SMALL
GASTEIGER

@<TRIPOS>ATOM
      1 C          63.4497   85.2792   13.1688 C.ar    1  UNL1        0.1418
      2 C          64.0430   86.3787   13.9988 C.ar    1  UNL1        0.0371
      3 C          63.8738   87.8091   13.5804 C.ar    1  UNL1        0.0061
      4 C          63.1111   88.1401   12.3319 C.ar    1  UNL1        0.0371
      5 C          62.5178   87.0407   11.5019 C.ar    1  UNL1        0.1418
      6 C          62.6870   85.6102   11.9203 C.ar    1  UNL1        0.0737
      7 C          63.9564   82.8034   12.5658 C.3     1  UNL1        0.2525
      8 O          63.6189   83.8487   13.5872 O.3     1  UNL1       -0.4713
      9 C          64.4672   88.9086   14.4105 C.2     1  UNL1        0.0035
     10 C          63.6788   90.1568   14.6761 C.2     1  UNL1        0.0420
     11 C          64.2722   91.2563   15.5061 C.2     1  UNL1        0.1957
     12 O          63.5091   91.8108   16.6725 O.2     1  UNL1       -0.2866
     13 C          65.6286   91.8013   15.1699 C.ar    1  UNL1        0.0420
     14 C          66.2355   91.5260   13.8262 C.ar    1  UNL1        0.0239
     15 C          67.5920   92.0710   13.4899 C.ar    1  UNL1        0.0990
     16 N          68.3415   92.8914   14.4975 N.ar    1  UNL1       -0.2423
     17 C          67.7345   93.1668   15.8414 C.ar    1  UNL1        0.0990
     18 C          66.3781   92.6217   16.1776 C.ar    1  UNL1        0.0239
     19 O          61.7551   87.3716   10.2533 O.3     1  UNL1       -0.4713
     20 C          60.2640   87.5263   10.3041 C.3     1  UNL1        0.2525
@<TRIPOS>BOND
     1     7     8    1
     2     8     1    1
     3     1     2   ar
     4     2     3   ar
     5     3     9    1
     6     9    10    2
     7    10    11    1
     8    11    12    2
     9    11    13    1
    10    13    14   ar
    11    14    15   ar
    12    15    16   ar
    13    16    17   ar
    14    17    18   ar
    15     3     4   ar
    16     4     5   ar
    17     5    19    1
    18    19    20    1
    19     5     6   ar
    20     6     1   ar
    21    18    13   ar
