@<TRIPOS>MOLECULE
*****
 34 36 0 0 0
SMALL
GASTEIGER

@<TRIPOS>ATOM
      1 C          60.4616   86.6363    7.9368 C.3     1  UNL1        0.0821
      2 C          59.7182   87.7177    7.2103 C.3     1  UNL1        0.0473
      3 C          59.7684   89.1301    7.7129 C.3     1  UNL1        0.1183
      4 C          60.5621   89.4612    8.9419 C.3     1  UNL1        0.0511
      5 C          61.3055   88.3797    9.6683 C.3     1  UNL1        0.1256
      6 N          61.2553   86.9673    9.1658 N.3     1  UNL1       -0.1544
      7 S          61.9988   85.8859    9.8923 S.O2    1  UNL1        0.0633
      8 O          63.0824   85.9348    8.8564 O.2     1  UNL1       -0.1528
      9 O          60.9151   85.8369   10.9283 O.2     1  UNL1       -0.1528
     10 C          62.7422   84.8045   10.6189 C.ar    1  UNL1        0.1223
     11 C          62.6229   84.6835   12.1092 C.ar    1  UNL1        0.0208
     12 C          63.3664   83.6020   12.8358 C.ar    1  UNL1        0.0128
     13 C          64.2290   82.6416   12.0719 C.ar    1  UNL1        0.0578
     14 CL         64.9725   81.5602   12.7985 Cl      1  UNL1       -0.0822
     15 C          64.3483   82.7626   10.5816 C.ar    1  UNL1        0.0128
     16 C          63.6049   83.8440    9.8551 C.ar    1  UNL1        0.0208
     17 C          61.3796   84.7667    6.3838 C.3     1  UNL1        0.0015
     18 C          60.4114   85.2239    7.4343 C.3     1  UNL1        0.0178
     19 O          59.0250   90.2116    6.9863 O.3     1  UNL1       -0.3535
     20 C          59.3026   90.4675    5.5346 C.3     1  UNL1        0.1740
     21 C          62.0992   88.7107   10.8974 C.3     1  UNL1        0.2277
     22 O          62.0298   90.0884   11.4866 O.3     1  UNL1       -0.4330
     23 C          63.1318   91.0721   11.2256 C.2     1  UNL1        0.4050
     24 O          63.2427   91.7359    9.8851 O.2     1  UNL1       -0.2262
     25 N          64.1228   91.3920   12.3052 N.am    1  UNL1       -0.2432
     26 C          64.0120   90.7282   13.6457 C.3     1  UNL1        0.1141
     27 C          65.0030   91.0480   14.7253 C.3     1  UNL1        0.0941
     28 N          66.1050   92.0318   14.4644 N.3     1  UNL1       -0.2676
     29 C          66.2158   92.6956   13.1238 C.3     1  UNL1        0.0941
     30 C          65.2247   92.3757   12.0442 C.3     1  UNL1        0.1141
     31 C          67.0960   92.3516   15.5439 C.3     1  UNL1        0.1043
     32 C          68.4145   92.9739   15.1913 C.3     1  UNL1        0.1544
     33 O          69.3594   92.2586   14.2718 O.3     1  UNL1       -0.3805
     34 H          69.6725   91.4456   14.6984 H       1  UNL1        0.2105
@<TRIPOS>BOND
     1    17    18    1
     2     1    18    1
     3     1     2    1
     4     2     3    1
     5     3    19    1
     6    19    20    1
     7     3     4    1
     8     4     5    1
     9     5    21    1
    10    21    22    1
    11    22    23    1
    12    23    24    2
    13    23    25   am
    14    25    26    1
    15    26    27    1
    16    27    28    1
    17    28    31    1
    18    31    32    1
    19    32    33    1
    20    28    29    1
    21    29    30    1
    22     5     6    1
    23     6     7    1
    24     7     8    2
    25     7     9    2
    26     7    10    1
    27    10    11   ar
    28    11    12   ar
    29    12    13   ar
    30    13    14    1
    31    13    15   ar
    32    15    16   ar
    33     6     1    1
    34    16    10   ar
    35    30    25    1
    36    33    34    1
@<TRIPOS>MOLECULE
*****
 34 36 0 0 0
SMALL
GASTEIGER

@<TRIPOS>ATOM
      1 C          65.9887   92.8509   14.2345 C.3     1  UNL1        0.0821
      2 C          66.4898   94.0037   13.4161 C.3     1  UNL1        0.0473
      3 C          66.1248   94.1081   11.9649 C.3     1  UNL1        0.1183
      4 C          65.2587   93.0596   11.3322 C.3     1  UNL1        0.0511
      5 C          64.7576   91.9067   12.1506 C.3     1  UNL1        0.1256
      6 N          65.1226   91.8024   13.6017 N.3     1  UNL1       -0.1544
      7 S          64.6215   90.6494   14.4201 S.O2    1  UNL1        0.0633
      8 O          63.3263   91.3718   14.6448 O.2     1  UNL1       -0.1528
      9 O          65.9167   89.9270   14.1954 O.2     1  UNL1       -0.1528
     10 C          64.1205   89.4965   15.2384 C.ar    1  UNL1        0.1223
     11 C          63.2964   89.7501   16.4659 C.ar    1  UNL1        0.0208
     12 C          62.7954   88.5971   17.2842 C.ar    1  UNL1        0.0128
     13 C          63.1184   87.1906   16.8751 C.ar    1  UNL1        0.0578
     14 CL         62.6173   86.0377   17.6935 Cl      1  UNL1       -0.0822
     15 C          63.9425   86.9371   15.6477 C.ar    1  UNL1        0.0128
     16 C          64.4435   88.0900   14.8293 C.ar    1  UNL1        0.0208
     17 C          67.7933   92.6277   16.0902 C.3     1  UNL1        0.0015
     18 C          66.3538   92.7465   15.6856 C.3     1  UNL1        0.0178
     19 O          66.6259   95.2610   11.1466 O.3     1  UNL1       -0.3535
     20 C          66.9664   95.0616    9.6994 C.3     1  UNL1        0.1740
     21 C          63.8915   90.8581   11.5178 C.3     1  UNL1        0.2277
     22 O          62.4035   90.9034   11.7016 O.3     1  UNL1       -0.4330
     23 C          61.5267   89.9366   10.9623 C.2     1  UNL1        0.4050
     24 O          60.4014   90.4448   10.1106 O.2     1  UNL1       -0.2262
     25 N          61.7751   88.4616   11.0747 N.am    1  UNL1       -0.2432
     26 C          62.9004   87.9534   11.9264 C.3     1  UNL1        0.1141
     27 C          63.1489   86.4784   12.0389 C.3     1  UNL1        0.0941
     28 N          62.2721   85.5116   11.2995 N.3     1  UNL1       -0.2676
     29 C          61.1468   86.0198   10.4478 C.3     1  UNL1        0.0941
     30 C          60.8983   87.4949   10.3354 C.3     1  UNL1        0.1141
     31 C          62.5206   84.0366   11.4120 C.3     1  UNL1        0.1043
     32 C          63.6475   83.4056   10.6492 C.3     1  UNL1        0.1544
     33 O          64.9864   83.2258   11.3011 O.3     1  UNL1       -0.3805
     34 H          65.3782   84.0949   11.4802 H       1  UNL1        0.2105
@<TRIPOS>BOND
     1    17    18    1
     2     1    18    1
     3     1     2    1
     4     2     3    1
     5     3    19    1
     6    19    20    1
     7     3     4    1
     8     4     5    1
     9     5    21    1
    10    21    22    1
    11    22    23    1
    12    23    24    2
    13    23    25   am
    14    25    26    1
    15    26    27    1
    16    27    28    1
    17    28    31    1
    18    31    32    1
    19    32    33    1
    20    28    29    1
    21    29    30    1
    22     5     6    1
    23     6     7    1
    24     7     8    2
    25     7     9    2
    26     7    10    1
    27    10    11   ar
    28    11    12   ar
    29    12    13   ar
    30    13    14    1
    31    13    15   ar
    32    15    16   ar
    33     6     1    1
    34    16    10   ar
    35    30    25    1
    36    33    34    1
@<TRIPOS>MOLECULE
*****
 34 36 0 0 0
SMALL
GASTEIGER

@<TRIPOS>ATOM
      1 C          60.4878   86.5721    7.9485 C.3     1  UNL1        0.0821
      2 C          59.7389   87.6622    7.2410 C.3     1  UNL1        0.0473
      3 C          59.7733   89.0639    7.7741 C.3     1  UNL1        0.1183
      4 C          60.5567   89.3754    9.0147 C.3     1  UNL1        0.0511
      5 C          61.3057   88.2853    9.7222 C.3     1  UNL1        0.1256
      6 N          61.2712   86.8836    9.1892 N.3     1  UNL1       -0.1544
      7 S          62.0202   85.7934    9.8968 S.O2    1  UNL1        0.0633
      8 O          63.1042   85.8669    8.8627 O.2     1  UNL1       -0.1528
      9 O          60.9361   85.7199   10.9309 O.2     1  UNL1       -0.1528
     10 C          62.7691   84.7033   10.6044 C.ar    1  UNL1        0.1223
     11 C          63.6475   83.7694    9.8258 C.ar    1  UNL1        0.0208
     12 C          64.3964   82.6793   10.5335 C.ar    1  UNL1        0.0128
     13 C          64.2669   82.5231   12.0197 C.ar    1  UNL1        0.0578
     14 CL         65.0158   81.4330   12.7273 Cl      1  UNL1       -0.0822
     15 C          63.3885   83.4570   12.7982 C.ar    1  UNL1        0.0128
     16 C          62.6396   84.5471   12.0906 C.ar    1  UNL1        0.0208
     17 C          61.4086   84.7547    6.3363 C.3     1  UNL1        0.0015
     18 C          60.4533   85.1704    7.4154 C.3     1  UNL1        0.0178
     19 O          59.0244   90.1540    7.0665 O.3     1  UNL1       -0.3535
     20 C          59.2483   90.3893    5.6020 C.3     1  UNL1        0.1740
     21 C          62.0891   88.5967   10.9629 C.3     1  UNL1        0.2277
     22 O          61.7546   89.8122   11.7758 O.3     1  UNL1       -0.4330
     23 C          62.7523   90.3584   12.7537 C.2     1  UNL1        0.4050
     24 O          62.6810   89.9615   14.1985 O.2     1  UNL1       -0.2262
     25 N          63.8213   91.3013   12.2869 N.am    1  UNL1       -0.2432
     26 C          63.8926   91.6982   10.8421 C.3     1  UNL1        0.1141
     27 C          64.9616   92.6412   10.3752 C.3     1  UNL1        0.0941
     28 N          65.9593   93.1874   11.3531 N.3     1  UNL1       -0.2676
     29 C          65.8880   92.7905   12.7979 C.3     1  UNL1        0.0941
     30 C          64.8189   91.8475   13.2648 C.3     1  UNL1        0.1141
     31 C          67.0283   94.1303   10.8863 C.3     1  UNL1        0.1043
     32 C          67.7991   93.8301    9.6350 C.3     1  UNL1        0.1544
     33 O          69.2071   93.3210    9.7253 O.3     1  UNL1       -0.3805
     34 H          69.7759   94.0088   10.1052 H       1  UNL1        0.2105
@<TRIPOS>BOND
     1    17    18    1
     2     1    18    1
     3     1     2    1
     4     2     3    1
     5     3    19    1
     6    19    20    1
     7     3     4    1
     8     4     5    1
     9     5    21    1
    10    21    22    1
    11    22    23    1
    12    23    24    2
    13    23    25   am
    14    25    26    1
    15    26    27    1
    16    27    28    1
    17    28    31    1
    18    31    32    1
    19    32    33    1
    20    28    29    1
    21    29    30    1
    22     5     6    1
    23     6     7    1
    24     7     8    2
    25     7     9    2
    26     7    10    1
    27    10    11   ar
    28    11    12   ar
    29    12    13   ar
    30    13    14    1
    31    13    15   ar
    32    15    16   ar
    33     6     1    1
    34    16    10   ar
    35    30    25    1
    36    33    34    1
@<TRIPOS>MOLECULE
*****
 34 36 0 0 0
SMALL
GASTEIGER

@<TRIPOS>ATOM
      1 C          66.2078   91.8576   13.1247 C.3     1  UNL1        0.0821
      2 C          66.6578   92.8325   12.0774 C.3     1  UNL1        0.0473
      3 C          65.7548   93.1683   10.9277 C.3     1  UNL1        0.1183
      4 C          64.4018   92.5290   10.8252 C.3     1  UNL1        0.0511
      5 C          63.9517   91.5541   11.8725 C.3     1  UNL1        0.1256
      6 N          64.8547   91.2183   13.0222 N.3     1  UNL1       -0.1544
      7 S          64.4046   90.2433   14.0695 S.O2    1  UNL1        0.0633
      8 O          64.6329   89.1106   13.1131 O.2     1  UNL1       -0.1528
      9 O          64.1763   91.3761   15.0259 O.2     1  UNL1       -0.1528
     10 C          63.9545   89.2684   15.1168 C.ar    1  UNL1        0.1223
     11 C          64.1934   87.7998   14.9266 C.ar    1  UNL1        0.0208
     12 C          63.7432   86.8248   15.9739 C.ar    1  UNL1        0.0128
     13 C          63.0542   87.3185   17.2115 C.ar    1  UNL1        0.0578
     14 CL         62.6041   86.3435   18.2587 Cl      1  UNL1       -0.0822
     15 C          62.8153   88.7871   17.4017 C.ar    1  UNL1        0.0128
     16 C          63.2654   89.7620   16.3544 C.ar    1  UNL1        0.0208
     17 C          68.1214   92.5224   14.7513 C.3     1  UNL1        0.0015
     18 C          67.1108   91.5219   14.2744 C.3     1  UNL1        0.0178
     19 O          66.2050   94.1433    9.8804 O.3     1  UNL1       -0.3535
     20 C          67.6414   94.1709    9.4493 C.3     1  UNL1        0.1740
     21 C          62.5986   90.9147   11.7701 C.3     1  UNL1        0.2277
     22 O          62.4355   89.6182   11.0337 O.3     1  UNL1       -0.4330
     23 C          61.2111   89.3773   10.2012 C.2     1  UNL1        0.4050
     24 O          60.0808   90.3631   10.2270 O.2     1  UNL1       -0.2262
     25 N          61.1171   88.1508    9.3429 N.am    1  UNL1       -0.2432
     26 C          62.2474   87.1650    9.3171 C.3     1  UNL1        0.1141
     27 C          62.1534   85.9385    8.4588 C.3     1  UNL1        0.0941
     28 N          60.9291   85.6976    7.6263 N.3     1  UNL1       -0.2676
     29 C          59.7987   86.6834    7.6521 C.3     1  UNL1        0.0941
     30 C          59.8928   87.9100    8.5105 C.3     1  UNL1        0.1141
     31 C          60.8351   84.4711    6.7680 C.3     1  UNL1        0.1043
     32 C          61.6246   84.3837    5.4956 C.3     1  UNL1        0.1544
     33 O          63.1225   84.4494    5.5364 O.3     1  UNL1       -0.3805
     34 H          63.3995   85.3283    5.8392 H       1  UNL1        0.2105
@<TRIPOS>BOND
     1    17    18    1
     2     1    18    1
     3     1     2    1
     4     2     3    1
     5     3    19    1
     6    19    20    1
     7     3     4    1
     8     4     5    1
     9     5    21    1
    10    21    22    1
    11    22    23    1
    12    23    24    2
    13    23    25   am
    14    25    26    1
    15    26    27    1
    16    27    28    1
    17    28    31    1
    18    31    32    1
    19    32    33    1
    20    28    29    1
    21    29    30    1
    22     5     6    1
    23     6     7    1
    24     7     8    2
    25     7     9    2
    26     7    10    1
    27    10    11   ar
    28    11    12   ar
    29    12    13   ar
    30    13    14    1
    31    13    15   ar
    32    15    16   ar
    33     6     1    1
    34    16    10   ar
    35    30    25    1
    36    33    34    1
@<TRIPOS>MOLECULE
*****
 34 36 0 0 0
SMALL
GASTEIGER

@<TRIPOS>ATOM
      1 C          62.7736   85.3133   11.8438 C.3     1  UNL1        0.0821
      2 C          63.5796   84.7611   12.9819 C.3     1  UNL1        0.0473
      3 C          64.1681   85.6884   14.0036 C.3     1  UNL1        0.1183
      4 C          63.9505   87.1680   13.8871 C.3     1  UNL1        0.0511
      5 C          63.1445   87.7202   12.7490 C.3     1  UNL1        0.1256
      6 N          62.5560   86.7929   11.7274 N.3     1  UNL1       -0.1544
      7 S          61.7499   87.3452   10.5892 S.O2    1  UNL1        0.0633
      8 O          60.5366   87.3895   11.4700 O.2     1  UNL1       -0.1528
      9 O          62.9633   87.3009    9.7085 O.2     1  UNL1       -0.1528
     10 C          60.9440   87.8975    9.4511 C.ar    1  UNL1        0.1223
     11 C          60.8713   89.3798    9.2334 C.ar    1  UNL1        0.0208
     12 C          60.0653   89.9320    8.0952 C.ar    1  UNL1        0.0128
     13 C          59.3319   89.0020    7.1748 C.ar    1  UNL1        0.0578
     14 CL         58.5260   89.5543    6.0367 Cl      1  UNL1       -0.0822
     15 C          59.4046   87.5197    7.3925 C.ar    1  UNL1        0.0128
     16 C          60.2106   86.9674    8.5306 C.ar    1  UNL1        0.0208
     17 C          63.0691   83.7442    9.7943 C.3     1  UNL1        0.0015
     18 C          62.1851   84.3860   10.8221 C.3     1  UNL1        0.0178
     19 O          64.9741   85.1361   15.1417 O.3     1  UNL1       -0.3535
     20 C          64.7084   83.7482   15.6449 C.3     1  UNL1        0.1740
     21 C          62.9269   89.1998   12.6326 C.3     1  UNL1        0.2277
     22 O          62.8044   90.0395   13.8694 O.3     1  UNL1       -0.4330
     23 C          63.9424   90.9197   14.2941 C.2     1  UNL1        0.4050
     24 O          64.3331   90.9949   15.7404 O.2     1  UNL1       -0.2262
     25 N          64.6897   91.7247   13.2725 N.am    1  UNL1       -0.2432
     26 C          64.2990   91.6495   11.8263 C.3     1  UNL1        0.1141
     27 C          65.0462   92.4545   10.8047 C.3     1  UNL1        0.0941
     28 N          66.1842   93.3347   11.2294 N.3     1  UNL1       -0.2676
     29 C          66.5749   93.4098   12.6757 C.3     1  UNL1        0.0941
     30 C          65.8276   92.6048   13.6973 C.3     1  UNL1        0.1141
     31 C          66.9314   94.1396   10.2079 C.3     1  UNL1        0.1043
     32 C          67.9334   93.4719    9.3134 C.3     1  UNL1        0.1544
     33 O          69.3516   93.3016    9.7714 O.3     1  UNL1       -0.3805
     34 H          69.7692   94.1725    9.8612 H       1  UNL1        0.2105
@<TRIPOS>BOND
     1    17    18    1
     2     1    18    1
     3     1     2    1
     4     2     3    1
     5     3    19    1
     6    19    20    1
     7     3     4    1
     8     4     5    1
     9     5    21    1
    10    21    22    1
    11    22    23    1
    12    23    24    2
    13    23    25   am
    14    25    26    1
    15    26    27    1
    16    27    28    1
    17    28    31    1
    18    31    32    1
    19    32    33    1
    20    28    29    1
    21    29    30    1
    22     5     6    1
    23     6     7    1
    24     7     8    2
    25     7     9    2
    26     7    10    1
    27    10    11   ar
    28    11    12   ar
    29    12    13   ar
    30    13    14    1
    31    13    15   ar
    32    15    16   ar
    33     6     1    1
    34    16    10   ar
    35    30    25    1
    36    33    34    1
@<TRIPOS>MOLECULE
*****
 34 36 0 0 0
SMALL
GASTEIGER

@<TRIPOS>ATOM
      1 C          61.5012   86.5370    8.6070 C.3     1  UNL1        0.0821
      2 C          60.7272   87.2346    7.5281 C.3     1  UNL1        0.0473
      3 C          59.7013   88.2677    7.8893 C.3     1  UNL1        0.1183
      4 C          59.4496   88.6031    9.3295 C.3     1  UNL1        0.0511
      5 C          60.2237   87.9055   10.4084 C.3     1  UNL1        0.1256
      6 N          61.2495   86.8724   10.0471 N.3     1  UNL1       -0.1544
      7 S          62.0236   86.1748   11.1261 S.O2    1  UNL1        0.0633
      8 O          62.8302   87.4191   11.3520 O.2     1  UNL1       -0.1528
      9 O          61.2170   84.9305   10.9002 O.2     1  UNL1       -0.1528
     10 C          62.7977   85.4771   12.2050 C.ar    1  UNL1        0.1223
     11 C          62.8481   83.9785   12.2425 C.ar    1  UNL1        0.0208
     12 C          63.6222   83.2808   13.3215 C.ar    1  UNL1        0.0128
     13 C          64.3458   84.0819   14.3629 C.ar    1  UNL1        0.0578
     14 CL         65.1198   83.3842   15.4418 Cl      1  UNL1       -0.0822
     15 C          64.2954   85.5805   14.3254 C.ar    1  UNL1        0.0128
     16 C          63.5214   86.2782   13.2465 C.ar    1  UNL1        0.0208
     17 C          62.4133   84.7547    6.9513 C.3     1  UNL1        0.0015
     18 C          62.5271   85.5040    8.2457 C.3     1  UNL1        0.0178
     19 O          58.9272   88.9653    6.8103 O.3     1  UNL1       -0.3535
     20 C          59.5480   90.1061    6.0599 C.3     1  UNL1        0.1740
     21 C          59.9720   88.2409   11.8486 C.3     1  UNL1        0.2277
     22 O          60.5045   89.5191   12.4251 O.3     1  UNL1       -0.4330
     23 C          61.6310   90.2375   11.7432 C.2     1  UNL1        0.4050
     24 O          61.5078   90.6266   10.2999 O.2     1  UNL1       -0.2262
     25 N          62.8807   90.5667   12.5047 N.am    1  UNL1       -0.2432
     26 C          63.0039   90.1775   13.9481 C.3     1  UNL1        0.1141
     27 C          64.2536   90.5067   14.7096 C.3     1  UNL1        0.0941
     28 N          65.3801   91.2251   14.0277 N.3     1  UNL1       -0.2676
     29 C          65.2569   91.6142   12.5843 C.3     1  UNL1        0.0941
     30 C          64.0072   91.2850   11.8228 C.3     1  UNL1        0.1141
     31 C          66.6298   91.5543   14.7892 C.3     1  UNL1        0.1043
     32 C          66.6460   92.7163   15.7376 C.3     1  UNL1        0.1544
     33 O          65.5671   92.8568   16.7701 O.3     1  UNL1       -0.3805
     34 H          64.7177   93.0181   16.3303 H       1  UNL1        0.2105
@<TRIPOS>BOND
     1    17    18    1
     2     1    18    1
     3     1     2    1
     4     2     3    1
     5     3    19    1
     6    19    20    1
     7     3     4    1
     8     4     5    1
     9     5    21    1
    10    21    22    1
    11    22    23    1
    12    23    24    2
    13    23    25   am
    14    25    26    1
    15    26    27    1
    16    27    28    1
    17    28    31    1
    18    31    32    1
    19    32    33    1
    20    28    29    1
    21    29    30    1
    22     5     6    1
    23     6     7    1
    24     7     8    2
    25     7     9    2
    26     7    10    1
    27    10    11   ar
    28    11    12   ar
    29    12    13   ar
    30    13    14    1
    31    13    15   ar
    32    15    16   ar
    33     6     1    1
    34    16    10   ar
    35    30    25    1
    36    33    34    1
@<TRIPOS>MOLECULE
*****
 34 36 0 0 0
SMALL
GASTEIGER

@<TRIPOS>ATOM
      1 C          64.0322   91.4519   11.3300 C.3     1  UNL1        0.0821
      2 C          63.0011   90.7394   10.5059 C.3     1  UNL1        0.0473
      3 C          62.4087   89.4513   10.9958 C.3     1  UNL1        0.1183
      4 C          62.8474   88.8758   12.3096 C.3     1  UNL1        0.0511
      5 C          63.8785   89.5884   13.1337 C.3     1  UNL1        0.1256
      6 N          64.4709   90.8764   12.6438 N.3     1  UNL1       -0.1544
      7 S          65.5020   91.5890   13.4680 S.O2    1  UNL1        0.0633
      8 O          66.5587   91.2108   12.4729 O.2     1  UNL1       -0.1528
      9 O          64.4453   91.9672   14.4630 O.2     1  UNL1       -0.1528
     10 C          66.5330   92.3015   14.2921 C.ar    1  UNL1        0.1223
     11 C          66.6814   93.7903   14.1843 C.ar    1  UNL1        0.0208
     12 C          67.7125   94.5028   15.0085 C.ar    1  UNL1        0.0128
     13 C          68.5952   93.7266   15.9403 C.ar    1  UNL1        0.0578
     14 CL         69.6262   94.4391   16.7644 Cl      1  UNL1       -0.0822
     15 C          68.4468   92.2379   16.0481 C.ar    1  UNL1        0.0128
     16 C          67.4158   91.5253   15.2239 C.ar    1  UNL1        0.0208
     17 C          65.9419   92.7348   10.1229 C.3     1  UNL1        0.0015
     18 C          64.6246   92.7400   10.8401 C.3     1  UNL1        0.0178
     19 O          61.3776   88.7387   10.1716 O.3     1  UNL1       -0.3535
     20 C          60.1515   89.4688    9.7093 C.3     1  UNL1        0.1740
     21 C          64.3172   89.0129   14.4476 C.3     1  UNL1        0.2277
     22 O          64.7067   87.5673   14.5406 O.3     1  UNL1       -0.4330
     23 C          63.8481   86.6071   15.3094 C.2     1  UNL1        0.4050
     24 O          63.3192   86.9897   16.6599 O.2     1  UNL1       -0.2262
     25 N          63.5185   85.2645   14.7276 N.am    1  UNL1       -0.2432
     26 C          64.0474   84.8819   13.3771 C.3     1  UNL1        0.1141
     27 C          63.7178   83.5392   12.7953 C.3     1  UNL1        0.0941
     28 N          62.8592   82.5790   13.5640 N.3     1  UNL1       -0.2676
     29 C          62.3303   82.9616   14.9145 C.3     1  UNL1        0.0941
     30 C          62.6599   84.3044   15.4963 C.3     1  UNL1        0.1141
     31 C          62.5295   81.2364   12.9823 C.3     1  UNL1        0.1043
     32 C          61.6635   80.2798   13.7470 C.3     1  UNL1        0.1544
     33 O          60.2680   80.6739   14.1307 O.3     1  UNL1       -0.3805
     34 H          60.3019   81.4058   14.7663 H       1  UNL1        0.2105
@<TRIPOS>BOND
     1    17    18    1
     2     1    18    1
     3     1     2    1
     4     2     3    1
     5     3    19    1
     6    19    20    1
     7     3     4    1
     8     4     5    1
     9     5    21    1
    10    21    22    1
    11    22    23    1
    12    23    24    2
    13    23    25   am
    14    25    26    1
    15    26    27    1
    16    27    28    1
    17    28    31    1
    18    31    32    1
    19    32    33    1
    20    28    29    1
    21    29    30    1
    22     5     6    1
    23     6     7    1
    24     7     8    2
    25     7     9    2
    26     7    10    1
    27    10    11   ar
    28    11    12   ar
    29    12    13   ar
    30    13    14    1
    31    13    15   ar
    32    15    16   ar
    33     6     1    1
    34    16    10   ar
    35    30    25    1
    36    33    34    1
@<TRIPOS>MOLECULE
*****
 34 36 0 0 0
SMALL
GASTEIGER

@<TRIPOS>ATOM
      1 C          62.5575   81.1393   12.8188 C.3     1  UNL1        0.0821
      2 C          62.5423   80.0296   11.8097 C.3     1  UNL1        0.0473
      3 C          63.0854   80.2621   10.4309 C.3     1  UNL1        0.1183
      4 C          63.6439   81.6042   10.0613 C.3     1  UNL1        0.0511
      5 C          63.6591   82.7139   11.0704 C.3     1  UNL1        0.1256
      6 N          63.1160   82.4814   12.4491 N.3     1  UNL1       -0.1544
      7 S          63.1312   83.5912   13.4583 S.O2    1  UNL1        0.0633
      8 O          61.9145   84.1905   12.8177 O.2     1  UNL1       -0.1528
      9 O          64.3480   82.9919   14.0988 O.2     1  UNL1       -0.1528
     10 C          63.1465   84.7009   14.4673 C.ar    1  UNL1        0.1223
     11 C          62.3591   84.5707   15.7373 C.ar    1  UNL1        0.0208
     12 C          62.3744   85.6805   16.7465 C.ar    1  UNL1        0.0128
     13 C          63.1772   86.9204   16.4855 C.ar    1  UNL1        0.0578
     14 CL         63.1925   88.0301   17.4946 Cl      1  UNL1       -0.0822
     15 C          63.9647   87.0506   15.2155 C.ar    1  UNL1        0.0128
     16 C          63.9494   85.9409   14.2064 C.ar    1  UNL1        0.0208
     17 C          60.5424   80.6997   14.3986 C.3     1  UNL1        0.0015
     18 C          62.0143   80.9068   14.1975 C.3     1  UNL1        0.0178
     19 O          63.0702   79.1523    9.4218 O.3     1  UNL1       -0.3535
     20 C          63.0804   77.7235    9.8782 C.3     1  UNL1        0.1740
     21 C          64.2176   84.0562   10.7008 C.3     1  UNL1        0.2277
     22 O          64.2158   84.5006    9.2682 O.3     1  UNL1       -0.4330
     23 C          62.9554   85.0261    8.6474 C.2     1  UNL1        0.4050
     24 O          62.5313   84.5471    7.2907 O.2     1  UNL1       -0.2262
     25 N          62.1192   86.0306    9.3834 N.am    1  UNL1       -0.2432
     26 C          62.5433   86.5096   10.7401 C.3     1  UNL1        0.1141
     27 C          61.7071   87.5141   11.4761 C.3     1  UNL1        0.0941
     28 N          60.4467   88.0396   10.8553 N.3     1  UNL1       -0.2676
     29 C          60.0226   87.5606    9.4986 C.3     1  UNL1        0.0941
     30 C          60.8589   86.5561    8.7627 C.3     1  UNL1        0.1141
     31 C          59.6104   89.0441   11.5913 C.3     1  UNL1        0.1043
     32 C          59.7034   90.4993   11.2394 C.3     1  UNL1        0.1544
     33 O          58.6350   91.4500   11.6918 O.3     1  UNL1       -0.3805
     34 H          57.7989   91.2298   11.2521 H       1  UNL1        0.2105
@<TRIPOS>BOND
     1    17    18    1
     2     1    18    1
     3     1     2    1
     4     2     3    1
     5     3    19    1
     6    19    20    1
     7     3     4    1
     8     4     5    1
     9     5    21    1
    10    21    22    1
    11    22    23    1
    12    23    24    2
    13    23    25   am
    14    25    26    1
    15    26    27    1
    16    27    28    1
    17    28    31    1
    18    31    32    1
    19    32    33    1
    20    28    29    1
    21    29    30    1
    22     5     6    1
    23     6     7    1
    24     7     8    2
    25     7     9    2
    26     7    10    1
    27    10    11   ar
    28    11    12   ar
    29    12    13   ar
    30    13    14    1
    31    13    15   ar
    32    15    16   ar
    33     6     1    1
    34    16    10   ar
    35    30    25    1
    36    33    34    1
@<TRIPOS>MOLECULE
*****
 34 36 0 0 0
SMALL
GASTEIGER

@<TRIPOS>ATOM
      1 C          60.9158   87.1520    8.8314 C.3     1  UNL1        0.0821
      2 C          60.2256   88.0291    7.8293 C.3     1  UNL1        0.0473
      3 C          59.8639   89.4394    8.1901 C.3     1  UNL1        0.1183
      4 C          60.1925   89.9726    9.5531 C.3     1  UNL1        0.0511
      5 C          60.8827   89.0955   10.5552 C.3     1  UNL1        0.1256
      6 N          61.2443   87.6852   10.1943 N.3     1  UNL1       -0.1544
      7 S          61.9346   86.8081   11.1965 S.O2    1  UNL1        0.0633
      8 O          63.2649   87.2100   10.6321 O.2     1  UNL1       -0.1528
      9 O          60.6042   86.4061   11.7609 O.2     1  UNL1       -0.1528
     10 C          62.6247   85.9310   12.1986 C.ar    1  UNL1        0.1223
     11 C          63.4994   86.5415   13.2533 C.ar    1  UNL1        0.0208
     12 C          64.1895   85.6643   14.2554 C.ar    1  UNL1        0.0128
     13 C          64.0050   84.1767   14.2030 C.ar    1  UNL1        0.0578
     14 CL         64.6952   83.2996   15.2051 Cl      1  UNL1       -0.0822
     15 C          63.1304   83.5661   13.1484 C.ar    1  UNL1        0.0128
     16 C          62.4402   84.4432   12.1462 C.ar    1  UNL1        0.0208
     17 C          60.9369   85.2043    7.1121 C.3     1  UNL1        0.0015
     18 C          61.2774   85.7417    8.4705 C.3     1  UNL1        0.0178
     19 O          59.1737   90.3166    7.1879 O.3     1  UNL1       -0.3535
     20 C          59.1490   89.9254    5.7401 C.3     1  UNL1        0.1740
     21 C          61.2113   89.6287   11.9182 C.3     1  UNL1        0.2277
     22 O          62.6142   90.0506   12.2404 O.3     1  UNL1       -0.4330
     23 C          63.0313   90.2396   13.6688 C.2     1  UNL1        0.4050
     24 O          62.2889   89.5363   14.7662 O.2     1  UNL1       -0.2262
     25 N          64.1907   91.1318   13.9998 N.am    1  UNL1       -0.2432
     26 C          64.9331   91.8351   12.9024 C.3     1  UNL1        0.1141
     27 C          66.0925   92.7273   13.2334 C.3     1  UNL1        0.0941
     28 N          66.5096   92.9163   14.6619 N.3     1  UNL1       -0.2676
     29 C          65.7672   92.2130   15.7593 C.3     1  UNL1        0.0941
     30 C          64.6077   91.3208   15.4282 C.3     1  UNL1        0.1141
     31 C          67.6690   93.8086   14.9929 C.3     1  UNL1        0.1043
     32 C          69.0290   93.2179   15.2202 C.3     1  UNL1        0.1544
     33 O          69.6433   92.3278   14.1809 O.3     1  UNL1       -0.3805
     34 H          69.1230   91.5127   14.1049 H       1  UNL1        0.2105
@<TRIPOS>BOND
     1    17    18    1
     2     1    18    1
     3     1     2    1
     4     2     3    1
     5     3    19    1
     6    19    20    1
     7     3     4    1
     8     4     5    1
     9     5    21    1
    10    21    22    1
    11    22    23    1
    12    23    24    2
    13    23    25   am
    14    25    26    1
    15    26    27    1
    16    27    28    1
    17    28    31    1
    18    31    32    1
    19    32    33    1
    20    28    29    1
    21    29    30    1
    22     5     6    1
    23     6     7    1
    24     7     8    2
    25     7     9    2
    26     7    10    1
    27    10    11   ar
    28    11    12   ar
    29    12    13   ar
    30    13    14    1
    31    13    15   ar
    32    15    16   ar
    33     6     1    1
    34    16    10   ar
    35    30    25    1
    36    33    34    1
