@<TRIPOS>MOLECULE
*****
 41 45 0 0 0
SMALL
GASTEIGER

@<TRIPOS>ATOM
      1 C          59.2857   88.5857    7.3539 C.2     1  UNL1        0.2252
      2 O          58.3513   87.4367    7.1162 O.2     1  UNL1       -0.2749
      3 N          60.1776   88.5899    8.5600 N.am    1  UNL1       -0.2794
      4 C          60.1350   87.4450    9.5283 C.3     1  UNL1        0.0953
      5 C          61.0269   87.4492   10.7343 C.3     1  UNL1        0.0442
      6 C          61.9614   88.5983   10.9721 C.3     1  UNL1        0.0933
      7 C          62.0040   89.7430   10.0038 C.3     1  UNL1        0.0442
      8 C          61.1121   89.7389    8.7978 C.3     1  UNL1        0.0953
      9 N          62.8533   88.6025   12.1782 N.ar    1  UNL1       -0.2817
     10 C          63.4169   89.8173   12.8537 C.ar    1  UNL1        0.3315
     11 O          63.1876   91.2413   12.4419 O.2     1  UNL1       -0.2463
     12 N          64.2501   89.3581   14.0134 N.ar    1  UNL1       -0.2799
     13 C          64.2014   87.8595   14.0546 C.ar    1  UNL1        0.0797
     14 C          64.8316   86.8598   14.9784 C.ar    1  UNL1        0.0188
     15 C          64.5985   85.3931   14.7679 C.ar    1  UNL1        0.0016
     16 C          63.7352   84.9260   13.6336 C.ar    1  UNL1        0.0016
     17 C          63.1050   85.9257   12.7098 C.ar    1  UNL1        0.0188
     18 C          63.3381   87.3924   12.9203 C.ar    1  UNL1        0.0796
     19 C          65.0002   90.2423   14.9650 C.3     1  UNL1        0.1109
     20 C          65.8567   91.3554   14.4378 C.3     1  UNL1        0.0334
     21 C          67.2611   91.5222   14.9376 C.3     1  UNL1        0.1053
     22 C          67.7082   92.8425   15.4915 C.3     1  UNL1        0.3978
     23 F          68.1552   94.1628   16.0455 F       1  UNL1       -0.1700
     24 F          68.6360   92.1333   16.4330 F       1  UNL1       -0.1700
     25 F          66.7803   93.5517   14.5501 F       1  UNL1       -0.1700
     26 N          59.4135   92.0202    4.4492 N.3     1  UNL1       -0.2689
     27 C          58.1082   91.6009    5.0580 C.3     1  UNL1        0.0729
     28 C          58.0656   90.4561    6.0263 C.3     1  UNL1        0.0264
     29 C          59.3283   89.7305    6.3857 C.3     1  UNL1        0.0795
     30 C          60.6336   90.1497    5.7769 C.3     1  UNL1        0.0264
     31 C          60.6761   91.2945    4.8086 C.3     1  UNL1        0.0729
     32 C          59.4561   93.1650    3.4809 C.3     1  UNL1        0.0993
     33 N          58.9244   92.3129   -1.6173 N.pl3   1  UNL1       -0.3426
     34 C          59.8023   92.5516   -0.4247 C.ar    1  UNL1        0.1251
     35 C          59.1902   92.7390    0.9319 C.ar    1  UNL1        0.0310
     36 C          60.0683   92.9777    2.1244 C.ar    1  UNL1       -0.0018
     37 C          61.5584   93.0291    1.9604 C.ar    1  UNL1        0.0179
     38 C          62.1705   92.8417    0.6038 C.ar    1  UNL1        0.1000
     39 N          61.2924   92.6030   -0.5887 N.ar    1  UNL1       -0.2296
     40 H          57.9463   92.2792   -1.5097 H       1  UNL1        0.1437
     41 H          59.3262   92.1900   -2.5076 H       1  UNL1        0.1437
@<TRIPOS>BOND
     1    33    34    1
     2    34    35   ar
     3    35    36   ar
     4    36    32    1
     5    32    26    1
     6    26    27    1
     7    27    28    1
     8    28    29    1
     9    29     1    1
    10     1     2    2
    11     1     3   am
    12     3     4    1
    13     4     5    1
    14     5     6    1
    15     6     9    1
    16     9    10   ar
    17    10    11    2
    18    10    12   ar
    19    12    19    1
    20    19    20    1
    21    20    21    1
    22    21    22    1
    23    22    23    1
    24    22    24    1
    25    22    25    1
    26    12    13   ar
    27    13    14   ar
    28    14    15   ar
    29    15    16   ar
    30    16    17   ar
    31    17    18   ar
    32     6     7    1
    33     7     8    1
    34    29    30    1
    35    30    31    1
    36    36    37   ar
    37    37    38   ar
    38    38    39   ar
    39    39    34   ar
    40    31    26    1
    41     8     3    1
    42    18     9   ar
    43    18    13   ar
    44    33    40    1
    45    33    41    1
@<TRIPOS>MOLECULE
*****
 41 45 0 0 0
SMALL
GASTEIGER

@<TRIPOS>ATOM
      1 C          62.7216   86.3153   16.7716 C.2     1  UNL1        0.2252
      2 O          62.0175   86.4426   18.0900 O.2     1  UNL1       -0.2749
      3 N          63.2903   87.5325   16.1046 N.am    1  UNL1       -0.2794
      4 C          63.1549   88.8769   16.7559 C.3     1  UNL1        0.0953
      5 C          63.7236   90.0942   16.0888 C.3     1  UNL1        0.0442
      6 C          64.4277   89.9669   14.7704 C.3     1  UNL1        0.0933
      7 C          64.5630   88.6225   14.1192 C.3     1  UNL1        0.0442
      8 C          63.9943   87.4053   14.7862 C.3     1  UNL1        0.0953
      9 N          64.9964   91.1842   14.1033 N.ar    1  UNL1       -0.2817
     10 C          64.6214   91.7023   12.7465 C.ar    1  UNL1        0.3315
     11 O          63.6119   91.0942   11.8185 O.2     1  UNL1       -0.2463
     12 N          65.4332   92.9353   12.4806 N.ar    1  UNL1       -0.2799
     13 C          66.3098   93.1792   13.6731 C.ar    1  UNL1        0.0797
     14 C          67.3190   94.2470   13.9753 C.ar    1  UNL1        0.0188
     15 C          68.0583   94.2325   15.2804 C.ar    1  UNL1        0.0016
     16 C          67.7883   93.1502   16.2833 C.ar    1  UNL1        0.0016
     17 C          66.7791   92.0824   15.9811 C.ar    1  UNL1        0.0188
     18 C          66.0399   92.0969   14.6760 C.ar    1  UNL1        0.0796
     19 C          65.3780   93.7767   11.2400 C.3     1  UNL1        0.1109
     20 C          66.4723   93.6795   10.2186 C.3     1  UNL1        0.0334
     21 C          67.5108   92.6031   10.3321 C.3     1  UNL1        0.1053
     22 C          68.4646   92.3590    9.2005 C.3     1  UNL1        0.3978
     23 F          69.4184   92.1147    8.0688 F       1  UNL1       -0.1700
     24 F          67.9688   90.9477    9.0871 F       1  UNL1       -0.1700
     25 F          68.9604   93.7701    9.3138 F       1  UNL1       -0.1700
     26 N          63.1277   82.2820   14.8178 N.3     1  UNL1       -0.2689
     27 C          61.7816   82.9370   14.9133 C.3     1  UNL1        0.0729
     28 C          61.6462   84.2814   15.5646 C.3     1  UNL1        0.0264
     29 C          62.8570   84.9709   16.1204 C.3     1  UNL1        0.0795
     30 C          64.2030   84.3159   16.0248 C.3     1  UNL1        0.0264
     31 C          64.3384   82.9715   15.3735 C.3     1  UNL1        0.0729
     32 C          63.2631   80.9376   14.1665 C.3     1  UNL1        0.0993
     33 N          62.4634   78.1146    9.8780 N.pl3   1  UNL1       -0.3426
     34 C          62.8457   79.4119   10.5268 C.ar    1  UNL1        0.1251
     35 C          62.8633   79.5261   12.0223 C.ar    1  UNL1        0.0310
     36 C          63.2456   80.8235   12.6710 C.ar    1  UNL1       -0.0018
     37 C          63.6103   82.0066   11.8241 C.ar    1  UNL1        0.0179
     38 C          63.5927   81.8924   10.3286 C.ar    1  UNL1        0.1000
     39 N          63.2104   80.5950    9.6799 N.ar    1  UNL1       -0.2296
     40 H          62.2241   77.3380   10.4338 H       1  UNL1        0.1437
     41 H          62.4519   78.0397    8.8964 H       1  UNL1        0.1437
@<TRIPOS>BOND
     1    33    34    1
     2    34    35   ar
     3    35    36   ar
     4    36    32    1
     5    32    26    1
     6    26    27    1
     7    27    28    1
     8    28    29    1
     9    29     1    1
    10     1     2    2
    11     1     3   am
    12     3     4    1
    13     4     5    1
    14     5     6    1
    15     6     9    1
    16     9    10   ar
    17    10    11    2
    18    10    12   ar
    19    12    19    1
    20    19    20    1
    21    20    21    1
    22    21    22    1
    23    22    23    1
    24    22    24    1
    25    22    25    1
    26    12    13   ar
    27    13    14   ar
    28    14    15   ar
    29    15    16   ar
    30    16    17   ar
    31    17    18   ar
    32     6     7    1
    33     7     8    1
    34    29    30    1
    35    30    31    1
    36    36    37   ar
    37    37    38   ar
    38    38    39   ar
    39    39    34   ar
    40    31    26    1
    41     8     3    1
    42    18     9   ar
    43    18    13   ar
    44    33    40    1
    45    33    41    1
@<TRIPOS>MOLECULE
*****
 41 45 0 0 0
SMALL
GASTEIGER

@<TRIPOS>ATOM
      1 C          59.1694   88.5917    7.1807 C.2     1  UNL1        0.2252
      2 O          58.1560   87.5223    6.8989 O.2     1  UNL1       -0.2749
      3 N          60.0524   88.4885    8.3889 N.am    1  UNL1       -0.2794
      4 C          59.9220   87.3159    9.3152 C.3     1  UNL1        0.0953
      5 C          60.8050   87.2127   10.5233 C.3     1  UNL1        0.0442
      6 C          61.8184   88.2821   10.8052 C.3     1  UNL1        0.0933
      7 C          61.9488   89.4546    9.8789 C.3     1  UNL1        0.0442
      8 C          61.0658   89.5578    8.6708 C.3     1  UNL1        0.0953
      9 N          62.7015   88.1789   12.0134 N.ar    1  UNL1       -0.2817
     10 C          63.0018   86.9260   12.7815 C.ar    1  UNL1        0.3315
     11 O          62.4720   85.5563   12.4762 O.2     1  UNL1       -0.2463
     12 N          63.9251   87.2833   13.9083 N.ar    1  UNL1       -0.2799
     13 C          64.1954   88.7570   13.8367 C.ar    1  UNL1        0.0797
     14 C          65.0324   89.6664   14.6866 C.ar    1  UNL1        0.0188
     15 C          65.1131   91.1294   14.3654 C.ar    1  UNL1        0.0016
     16 C          64.3568   91.6829   13.1942 C.ar    1  UNL1        0.0016
     17 C          63.5198   90.7735   12.3443 C.ar    1  UNL1        0.0188
     18 C          63.4391   89.3106   12.6656 C.ar    1  UNL1        0.0796
     19 C          64.4807   86.3336   14.9279 C.3     1  UNL1        0.1109
     20 C          64.9753   84.9825   14.5033 C.3     1  UNL1        0.0334
     21 C          64.4685   83.7487   15.1896 C.3     1  UNL1        0.1053
     22 C          63.0957   83.2291   14.8809 C.3     1  UNL1        0.3978
     23 F          61.7229   82.7095   14.5721 F       1  UNL1       -0.1700
     24 F          63.6478   82.4630   13.7153 F       1  UNL1       -0.1700
     25 F          62.5436   83.9952   16.0464 F       1  UNL1       -0.1700
     26 N          59.5605   92.1094    4.4018 N.3     1  UNL1       -0.2689
     27 C          60.7715   91.3018    4.7645 C.3     1  UNL1        0.0729
     28 C          60.6411   90.1292    5.6908 C.3     1  UNL1        0.0264
     29 C          59.2997   89.7643    6.2544 C.3     1  UNL1        0.0795
     30 C          58.0888   90.5718    5.8918 C.3     1  UNL1        0.0264
     31 C          58.2192   91.7444    4.9655 C.3     1  UNL1        0.0729
     32 C          59.6909   93.2820    3.4755 C.3     1  UNL1        0.0993
     33 N          63.8101   93.5094    0.3164 N.pl3   1  UNL1       -0.3426
     34 C          62.3561   93.2134    0.5359 C.ar    1  UNL1        0.1251
     35 C          61.7505   93.3957    1.8960 C.ar    1  UNL1        0.0310
     36 C          60.2964   93.0997    2.1154 C.ar    1  UNL1       -0.0018
     37 C          59.4480   92.6214    0.9746 C.ar    1  UNL1        0.0179
     38 C          60.0536   92.4391   -0.3855 C.ar    1  UNL1        0.1000
     39 N          61.5076   92.7351   -0.6049 N.ar    1  UNL1       -0.2296
     40 H          64.3671   93.8233    1.0651 H       1  UNL1        0.1437
     41 H          64.2076   93.3897   -0.5763 H       1  UNL1        0.1437
@<TRIPOS>BOND
     1    33    34    1
     2    34    35   ar
     3    35    36   ar
     4    36    32    1
     5    32    26    1
     6    26    27    1
     7    27    28    1
     8    28    29    1
     9    29     1    1
    10     1     2    2
    11     1     3   am
    12     3     4    1
    13     4     5    1
    14     5     6    1
    15     6     9    1
    16     9    10   ar
    17    10    11    2
    18    10    12   ar
    19    12    19    1
    20    19    20    1
    21    20    21    1
    22    21    22    1
    23    22    23    1
    24    22    24    1
    25    22    25    1
    26    12    13   ar
    27    13    14   ar
    28    14    15   ar
    29    15    16   ar
    30    16    17   ar
    31    17    18   ar
    32     6     7    1
    33     7     8    1
    34    29    30    1
    35    30    31    1
    36    36    37   ar
    37    37    38   ar
    38    38    39   ar
    39    39    34   ar
    40    31    26    1
    41     8     3    1
    42    18     9   ar
    43    18    13   ar
    44    33    40    1
    45    33    41    1
@<TRIPOS>MOLECULE
*****
 41 45 0 0 0
SMALL
GASTEIGER

@<TRIPOS>ATOM
      1 C          58.7199   90.6494    5.7865 C.2     1  UNL1        0.2252
      2 O          57.2754   91.0232    5.9394 O.2     1  UNL1       -0.2749
      3 N          59.5492   91.2850    4.7102 N.am    1  UNL1       -0.2794
      4 C          58.9339   92.2945    3.7870 C.3     1  UNL1        0.0953
      5 C          59.7631   92.9301    2.7108 C.3     1  UNL1        0.0442
      6 C          61.2078   92.5563    2.5578 C.3     1  UNL1        0.0933
      7 C          61.8230   91.5469    3.4810 C.3     1  UNL1        0.0442
      8 C          60.9938   90.9112    4.5572 C.3     1  UNL1        0.0953
      9 N          62.0371   93.1920    1.4815 N.ar    1  UNL1       -0.2817
     10 C          61.8527   93.0113    0.0039 C.ar    1  UNL1        0.3315
     11 O          60.8067   92.1632   -0.6569 O.2     1  UNL1       -0.2463
     12 N          62.8980   93.8276   -0.6968 N.ar    1  UNL1       -0.2799
     13 C          63.7284   94.5127    0.3477 C.ar    1  UNL1        0.0797
     14 C          64.9003   95.4436    0.2468 C.ar    1  UNL1        0.0188
     15 C          65.5400   95.9815    1.4923 C.ar    1  UNL1        0.0016
     16 C          65.0080   95.5887    2.8386 C.ar    1  UNL1        0.0016
     17 C          63.8361   94.6579    2.9395 C.ar    1  UNL1        0.0188
     18 C          63.1963   94.1199    1.6940 C.ar    1  UNL1        0.0796
     19 C          63.0808   93.9391   -2.1814 C.3     1  UNL1        0.1109
     20 C          63.8829   92.9074   -2.9180 C.3     1  UNL1        0.0334
     21 C          63.7509   92.7769   -4.4065 C.3     1  UNL1        0.1053
     22 C          64.9404   93.0155   -5.2886 C.3     1  UNL1        0.3978
     23 F          66.1299   93.2541   -6.1707 F       1  UNL1       -0.1700
     24 F          65.0321   94.4250   -4.7836 F       1  UNL1       -0.1700
     25 F          64.8487   91.6060   -5.7935 F       1  UNL1       -0.1700
     26 N          60.5659   87.6210    8.5561 N.3     1  UNL1       -0.2689
     27 C          60.6831   89.0852    8.8604 C.3     1  UNL1        0.0729
     28 C          60.0678   90.0947    7.9372 C.3     1  UNL1        0.0264
     29 C          59.3352   89.6399    6.7097 C.3     1  UNL1        0.0795
     30 C          59.2180   88.1758    6.4055 C.3     1  UNL1        0.0264
     31 C          59.8333   87.1663    7.3287 C.3     1  UNL1        0.0729
     32 C          61.1812   86.6116    9.4794 C.3     1  UNL1        0.0993
     33 N          63.5622   85.5396   13.9718 N.pl3   1  UNL1       -0.3426
     34 C          63.1474   86.5314   12.9257 C.ar    1  UNL1        0.1251
     35 C          62.3717   86.0756   11.7255 C.ar    1  UNL1        0.0310
     36 C          61.9569   87.0675   10.6795 C.ar    1  UNL1       -0.0018
     37 C          62.3179   88.5152   10.8336 C.ar    1  UNL1        0.0179
     38 C          63.0936   88.9710   12.0338 C.ar    1  UNL1        0.1000
     39 N          63.5084   87.9792   13.0798 N.ar    1  UNL1       -0.2296
     40 H          63.3253   84.5894   13.8707 H       1  UNL1        0.1437
     41 H          64.0713   85.8388   14.7595 H       1  UNL1        0.1437
@<TRIPOS>BOND
     1    33    34    1
     2    34    35   ar
     3    35    36   ar
     4    36    32    1
     5    32    26    1
     6    26    27    1
     7    27    28    1
     8    28    29    1
     9    29     1    1
    10     1     2    2
    11     1     3   am
    12     3     4    1
    13     4     5    1
    14     5     6    1
    15     6     9    1
    16     9    10   ar
    17    10    11    2
    18    10    12   ar
    19    12    19    1
    20    19    20    1
    21    20    21    1
    22    21    22    1
    23    22    23    1
    24    22    24    1
    25    22    25    1
    26    12    13   ar
    27    13    14   ar
    28    14    15   ar
    29    15    16   ar
    30    16    17   ar
    31    17    18   ar
    32     6     7    1
    33     7     8    1
    34    29    30    1
    35    30    31    1
    36    36    37   ar
    37    37    38   ar
    38    38    39   ar
    39    39    34   ar
    40    31    26    1
    41     8     3    1
    42    18     9   ar
    43    18    13   ar
    44    33    40    1
    45    33    41    1
@<TRIPOS>MOLECULE
*****
 41 45 0 0 0
SMALL
GASTEIGER

@<TRIPOS>ATOM
      1 C          58.3653   90.0890    6.3144 C.2     1  UNL1        0.2252
      2 O          56.8664   90.0779    6.2576 O.2     1  UNL1       -0.2749
      3 N          59.1488   90.8578    5.2921 N.am    1  UNL1       -0.2794
      4 C          58.4334   91.6156    4.2132 C.3     1  UNL1        0.0953
      5 C          59.2169   92.3845    3.1910 C.3     1  UNL1        0.0442
      6 C          60.7159   92.3956    3.2476 C.3     1  UNL1        0.0933
      7 C          61.4312   91.6378    4.3265 C.3     1  UNL1        0.0442
      8 C          60.6477   90.8690    5.3488 C.3     1  UNL1        0.0953
      9 N          61.4994   93.1644    2.2254 N.ar    1  UNL1       -0.2817
     10 C          62.8755   92.8273    1.7328 C.ar    1  UNL1        0.3315
     11 O          63.7097   91.6620    2.1758 O.2     1  UNL1       -0.2463
     12 N          63.2709   93.8599    0.7192 N.ar    1  UNL1       -0.2799
     13 C          62.1392   94.8353    0.5855 C.ar    1  UNL1        0.0797
     14 C          61.9642   96.0593   -0.2637 C.ar    1  UNL1        0.0188
     15 C          60.6943   96.8535   -0.1820 C.ar    1  UNL1        0.0016
     16 C          59.5995   96.4237    0.7489 C.ar    1  UNL1        0.0016
     17 C          59.7745   95.1996    1.5981 C.ar    1  UNL1        0.0188
     18 C          61.0443   94.4055    1.5164 C.ar    1  UNL1        0.0796
     19 C          64.5699   93.9087   -0.0292 C.3     1  UNL1        0.1109
     20 C          64.5784   94.2142   -1.4978 C.3     1  UNL1        0.0334
     21 C          63.8070   93.3476   -2.4486 C.3     1  UNL1        0.1053
     22 C          62.6040   93.8970   -3.1564 C.3     1  UNL1        0.3978
     23 F          61.4011   94.4464   -3.8643 F       1  UNL1       -0.1700
     24 F          61.7084   93.1246   -2.2337 F       1  UNL1       -0.1700
     25 F          63.4996   94.6694   -4.0791 F       1  UNL1       -0.1700
     26 N          60.5114   87.8158    9.5511 N.3     1  UNL1       -0.2689
     27 C          59.7182   87.0761    8.5148 C.3     1  UNL1        0.0729
     28 C          59.0028   87.8338    7.4358 C.3     1  UNL1        0.0264
     29 C          59.0807   89.3312    7.3933 C.3     1  UNL1        0.0795
     30 C          59.8738   90.0709    8.4295 C.3     1  UNL1        0.0264
     31 C          60.5892   89.3131    9.5084 C.3     1  UNL1        0.0729
     32 C          61.2268   87.0580   10.6300 C.3     1  UNL1        0.0993
     33 N          63.7171   82.7125   12.0136 N.pl3   1  UNL1       -0.3426
     34 C          63.3475   83.7205   10.9660 C.ar    1  UNL1        0.1251
     35 C          62.4719   84.8853   11.3218 C.ar    1  UNL1        0.0310
     36 C          62.1024   85.8933   10.2742 C.ar    1  UNL1       -0.0018
     37 C          62.6085   85.7365    8.8709 C.ar    1  UNL1        0.0179
     38 C          63.4841   84.5717    8.5152 C.ar    1  UNL1        0.1000
     39 N          63.8536   83.5637    9.5627 N.ar    1  UNL1       -0.2296
     40 H          63.3850   82.8153   12.9346 H       1  UNL1        0.1437
     41 H          64.2918   81.9480   11.7800 H       1  UNL1        0.1437
@<TRIPOS>BOND
     1    33    34    1
     2    34    35   ar
     3    35    36   ar
     4    36    32    1
     5    32    26    1
     6    26    27    1
     7    27    28    1
     8    28    29    1
     9    29     1    1
    10     1     2    2
    11     1     3   am
    12     3     4    1
    13     4     5    1
    14     5     6    1
    15     6     9    1
    16     9    10   ar
    17    10    11    2
    18    10    12   ar
    19    12    19    1
    20    19    20    1
    21    20    21    1
    22    21    22    1
    23    22    23    1
    24    22    24    1
    25    22    25    1
    26    12    13   ar
    27    13    14   ar
    28    14    15   ar
    29    15    16   ar
    30    16    17   ar
    31    17    18   ar
    32     6     7    1
    33     7     8    1
    34    29    30    1
    35    30    31    1
    36    36    37   ar
    37    37    38   ar
    38    38    39   ar
    39    39    34   ar
    40    31    26    1
    41     8     3    1
    42    18     9   ar
    43    18    13   ar
    44    33    40    1
    45    33    41    1
@<TRIPOS>MOLECULE
*****
 41 45 0 0 0
SMALL
GASTEIGER

@<TRIPOS>ATOM
      1 C          58.4765   89.7791    6.4690 C.2     1  UNL1        0.2252
      2 O          56.9942   89.8852    6.6724 O.2     1  UNL1       -0.2749
      3 N          59.1542   90.6283    5.4347 N.am    1  UNL1       -0.2794
      4 C          58.3495   91.5834    4.6039 C.3     1  UNL1        0.0953
      5 C          59.0272   92.4326    3.5697 C.3     1  UNL1        0.0442
      6 C          60.5096   92.3266    3.3662 C.3     1  UNL1        0.0933
      7 C          61.3142   91.3715    4.1970 C.3     1  UNL1        0.0442
      8 C          60.6365   90.5223    5.2313 C.3     1  UNL1        0.0953
      9 N          61.1873   93.1758    2.3319 N.ar    1  UNL1       -0.2817
     10 C          62.6628   93.4222    2.2223 C.ar    1  UNL1        0.3315
     11 O          63.7198   92.8626    3.1277 O.2     1  UNL1       -0.2463
     12 N          62.8958   94.3263    1.0483 N.ar    1  UNL1       -0.2799
     13 C          61.5642   94.6387    0.4324 C.ar    1  UNL1        0.0797
     14 C          61.1769   95.4788   -0.7483 C.ar    1  UNL1        0.0188
     15 C          59.7335   95.6078   -1.1358 C.ar    1  UNL1        0.0016
     16 C          58.6776   94.8967   -0.3424 C.ar    1  UNL1        0.0016
     17 C          59.0650   94.0566    0.8383 C.ar    1  UNL1        0.0188
     18 C          60.5083   93.9276    1.2257 C.ar    1  UNL1        0.0796
     19 C          64.2267   94.8297    0.5736 C.3     1  UNL1        0.1109
     20 C          64.8312   94.2799   -0.6844 C.3     1  UNL1        0.0334
     21 C          64.3551   94.7676   -2.0206 C.3     1  UNL1        0.1053
     22 C          63.9432   93.7834   -3.0749 C.3     1  UNL1        0.3978
     23 F          63.5314   92.7991   -4.1292 F       1  UNL1       -0.1700
     24 F          64.8191   94.4839   -4.0710 F       1  UNL1       -0.1700
     25 F          63.0673   93.0828   -2.0789 F       1  UNL1       -0.1700
     26 N          60.8905   86.9138    8.9614 N.3     1  UNL1       -0.2689
     27 C          60.9007   88.3791    9.2820 C.3     1  UNL1        0.0729
     28 C          60.0961   89.3343    8.4512 C.3     1  UNL1        0.0264
     29 C          59.2812   88.8240    7.2998 C.3     1  UNL1        0.0795
     30 C          59.2710   87.3587    6.9792 C.3     1  UNL1        0.0264
     31 C          60.0756   86.4036    7.8100 C.3     1  UNL1        0.0729
     32 C          61.6952   85.9586    9.7922 C.3     1  UNL1        0.0993
     33 N          63.5355   89.8406   12.7151 N.pl3   1  UNL1       -0.3426
     34 C          63.2827   88.3764   12.5094 C.ar    1  UNL1        0.1251
     35 C          62.6153   87.8996   11.2536 C.ar    1  UNL1        0.0310
     36 C          62.3626   86.4354   11.0480 C.ar    1  UNL1       -0.0018
     37 C          62.7773   85.4480   12.0983 C.ar    1  UNL1        0.0179
     38 C          63.4448   85.9248   13.3541 C.ar    1  UNL1        0.1000
     39 N          63.6975   87.3890   13.5597 N.ar    1  UNL1       -0.2296
     40 H          63.2633   90.4887   12.0258 H       1  UNL1        0.1437
     41 H          63.9735   90.1535   13.5394 H       1  UNL1        0.1437
@<TRIPOS>BOND
     1    33    34    1
     2    34    35   ar
     3    35    36   ar
     4    36    32    1
     5    32    26    1
     6    26    27    1
     7    27    28    1
     8    28    29    1
     9    29     1    1
    10     1     2    2
    11     1     3   am
    12     3     4    1
    13     4     5    1
    14     5     6    1
    15     6     9    1
    16     9    10   ar
    17    10    11    2
    18    10    12   ar
    19    12    19    1
    20    19    20    1
    21    20    21    1
    22    21    22    1
    23    22    23    1
    24    22    24    1
    25    22    25    1
    26    12    13   ar
    27    13    14   ar
    28    14    15   ar
    29    15    16   ar
    30    16    17   ar
    31    17    18   ar
    32     6     7    1
    33     7     8    1
    34    29    30    1
    35    30    31    1
    36    36    37   ar
    37    37    38   ar
    38    38    39   ar
    39    39    34   ar
    40    31    26    1
    41     8     3    1
    42    18     9   ar
    43    18    13   ar
    44    33    40    1
    45    33    41    1
@<TRIPOS>MOLECULE
*****
 41 45 0 0 0
SMALL
GASTEIGER

@<TRIPOS>ATOM
      1 C          62.5697   86.5385   16.7330 C.2     1  UNL1        0.2252
      2 O          61.6766   86.6326   17.9344 O.2     1  UNL1       -0.2749
      3 N          63.2321   87.7711   16.1926 N.am    1  UNL1       -0.2794
      4 C          63.0014   89.0976   16.8536 C.3     1  UNL1        0.0953
      5 C          63.6639   90.3302   16.3132 C.3     1  UNL1        0.0442
      6 C          64.5570   90.2361   15.1117 C.3     1  UNL1        0.0933
      7 C          64.7876   88.9096   14.4507 C.3     1  UNL1        0.0442
      8 C          64.1252   87.6770   14.9911 C.3     1  UNL1        0.0953
      9 N          65.2194   91.4687   14.5713 N.ar    1  UNL1       -0.2817
     10 C          66.0578   92.4346   15.3549 C.ar    1  UNL1        0.3315
     11 O          66.3810   92.3377   16.8164 O.2     1  UNL1       -0.2463
     12 N          66.5163   93.5146   14.4202 N.ar    1  UNL1       -0.2799
     13 C          65.9612   93.2161   13.0591 C.ar    1  UNL1        0.0797
     14 C          66.0821   93.9323   11.7467 C.ar    1  UNL1        0.0188
     15 C          65.4015   93.3840   10.5276 C.ar    1  UNL1        0.0016
     16 C          64.6000   92.1195   10.6210 C.ar    1  UNL1        0.0016
     17 C          64.4791   91.4033   11.9334 C.ar    1  UNL1        0.0188
     18 C          65.1597   91.9516   13.1524 C.ar    1  UNL1        0.0796
     19 C          67.3784   94.6872   14.7831 C.3     1  UNL1        0.1109
     20 C          68.5881   94.4897   15.6480 C.3     1  UNL1        0.0334
     21 C          69.2267   93.1360   15.7464 C.3     1  UNL1        0.1053
     22 C          69.5717   92.3771   14.4994 C.3     1  UNL1        0.3978
     23 F          69.9168   91.6183   13.2524 F       1  UNL1       -0.1700
     24 F          70.6398   93.3819   14.1836 F       1  UNL1       -0.1700
     25 F          68.5036   91.3724   14.8153 F       1  UNL1       -0.1700
     26 N          63.2617   82.5588   14.7498 N.3     1  UNL1       -0.2689
     27 C          61.8655   83.0822   14.9143 C.3     1  UNL1        0.0729
     28 C          61.6348   84.4087   15.5754 C.3     1  UNL1        0.0264
     29 C          62.8003   85.2119   16.0719 C.3     1  UNL1        0.0795
     30 C          64.1964   84.6886   15.9075 C.3     1  UNL1        0.0264
     31 C          64.4271   83.3621   15.2464 C.3     1  UNL1        0.0729
     32 C          63.4924   81.2323   14.0888 C.3     1  UNL1        0.0993
     33 N          62.4718   78.4609    9.8135 N.pl3   1  UNL1       -0.3426
     34 C          62.9340   79.7351   10.4562 C.ar    1  UNL1        0.1251
     35 C          62.9821   79.8466   11.9512 C.ar    1  UNL1        0.0310
     36 C          63.4443   81.1208   12.5938 C.ar    1  UNL1       -0.0018
     37 C          63.8584   82.2834   11.7412 C.ar    1  UNL1        0.0179
     38 C          63.8103   82.1719   10.2462 C.ar    1  UNL1        0.1000
     39 N          63.3480   80.8977    9.6036 N.ar    1  UNL1       -0.2296
     40 H          62.2000   77.6978   10.3730 H       1  UNL1        0.1437
     41 H          62.4402   78.3877    8.8323 H       1  UNL1        0.1437
@<TRIPOS>BOND
     1    33    34    1
     2    34    35   ar
     3    35    36   ar
     4    36    32    1
     5    32    26    1
     6    26    27    1
     7    27    28    1
     8    28    29    1
     9    29     1    1
    10     1     2    2
    11     1     3   am
    12     3     4    1
    13     4     5    1
    14     5     6    1
    15     6     9    1
    16     9    10   ar
    17    10    11    2
    18    10    12   ar
    19    12    19    1
    20    19    20    1
    21    20    21    1
    22    21    22    1
    23    22    23    1
    24    22    24    1
    25    22    25    1
    26    12    13   ar
    27    13    14   ar
    28    14    15   ar
    29    15    16   ar
    30    16    17   ar
    31    17    18   ar
    32     6     7    1
    33     7     8    1
    34    29    30    1
    35    30    31    1
    36    36    37   ar
    37    37    38   ar
    38    38    39   ar
    39    39    34   ar
    40    31    26    1
    41     8     3    1
    42    18     9   ar
    43    18    13   ar
    44    33    40    1
    45    33    41    1
@<TRIPOS>MOLECULE
*****
 41 45 0 0 0
SMALL
GASTEIGER

@<TRIPOS>ATOM
      1 C          58.6231   90.5844    5.8686 C.2     1  UNL1        0.2252
      2 O          57.1372   90.7865    5.8362 O.2     1  UNL1       -0.2749
      3 N          59.4856   91.1884    4.8003 N.am    1  UNL1       -0.2794
      4 C          58.8622   91.9945    3.6997 C.3     1  UNL1        0.0953
      5 C          59.7247   92.5985    2.6314 C.3     1  UNL1        0.0442
      6 C          61.2107   92.3964    2.6638 C.3     1  UNL1        0.0933
      7 C          61.8341   91.5903    3.7644 C.3     1  UNL1        0.0442
      8 C          60.9716   90.9863    4.8327 C.3     1  UNL1        0.0953
      9 N          62.0732   93.0004    1.5955 N.ar    1  UNL1       -0.2817
     10 C          61.9465   92.7614    0.1201 C.ar    1  UNL1        0.3315
     11 O          60.9351   91.8765   -0.5461 O.2     1  UNL1       -0.2463
     12 N          63.0089   93.5628   -0.5721 N.ar    1  UNL1       -0.2799
     13 C          63.7922   94.2971    0.4754 C.ar    1  UNL1        0.0797
     14 C          64.9572   95.2372    0.3825 C.ar    1  UNL1        0.0188
     15 C          65.5440   95.8298    1.6293 C.ar    1  UNL1        0.0016
     16 C          64.9657   95.4822    2.9690 C.ar    1  UNL1        0.0016
     17 C          63.8007   94.5421    3.0619 C.ar    1  UNL1        0.0188
     18 C          63.2139   93.9495    1.8151 C.ar    1  UNL1        0.0796
     19 C          63.2463   93.6199   -2.0521 C.3     1  UNL1        0.1109
     20 C          62.3884   94.4961   -2.9161 C.3     1  UNL1        0.0334
     21 C          61.1062   93.9641   -3.4846 C.3     1  UNL1        0.1053
     22 C          59.8010   94.2830   -2.8177 C.3     1  UNL1        0.3978
     23 F          58.4958   94.6019   -2.1509 F       1  UNL1       -0.1700
     24 F          60.3065   95.6555   -2.4847 F       1  UNL1       -0.1700
     25 F          59.2955   92.9105   -3.1508 F       1  UNL1       -0.1700
     26 N          60.4934   88.1661    9.1707 N.3     1  UNL1       -0.2689
     27 C          59.6816   87.4845    8.1092 C.3     1  UNL1        0.0729
     28 C          59.0581   88.2906    7.0085 C.3     1  UNL1        0.0264
     29 C          59.2465   89.7783    6.9693 C.3     1  UNL1        0.0795
     30 C          60.0583   90.4598    8.0307 C.3     1  UNL1        0.0264
     31 C          60.6817   89.6537    9.1314 C.3     1  UNL1        0.0729
     32 C          61.1168   87.3600   10.2714 C.3     1  UNL1        0.0993
     33 N          63.5818   83.0318   11.7515 N.pl3   1  UNL1       -0.3426
     34 C          63.2107   84.0136   10.6799 C.ar    1  UNL1        0.1251
     35 C          62.3493   85.1960   11.0114 C.ar    1  UNL1        0.0310
     36 C          61.9783   86.1777    9.9397 C.ar    1  UNL1       -0.0018
     37 C          62.4688   85.9771    8.5365 C.ar    1  UNL1        0.0179
     38 C          63.3303   84.7948    8.2049 C.ar    1  UNL1        0.1000
     39 N          63.7012   83.8131    9.2766 N.ar    1  UNL1       -0.2296
     40 H          63.2598   83.1634   12.6726 H       1  UNL1        0.1437
     41 H          64.1472   82.2558   11.5339 H       1  UNL1        0.1437
@<TRIPOS>BOND
     1    33    34    1
     2    34    35   ar
     3    35    36   ar
     4    36    32    1
     5    32    26    1
     6    26    27    1
     7    27    28    1
     8    28    29    1
     9    29     1    1
    10     1     2    2
    11     1     3   am
    12     3     4    1
    13     4     5    1
    14     5     6    1
    15     6     9    1
    16     9    10   ar
    17    10    11    2
    18    10    12   ar
    19    12    19    1
    20    19    20    1
    21    20    21    1
    22    21    22    1
    23    22    23    1
    24    22    24    1
    25    22    25    1
    26    12    13   ar
    27    13    14   ar
    28    14    15   ar
    29    15    16   ar
    30    16    17   ar
    31    17    18   ar
    32     6     7    1
    33     7     8    1
    34    29    30    1
    35    30    31    1
    36    36    37   ar
    37    37    38   ar
    38    38    39   ar
    39    39    34   ar
    40    31    26    1
    41     8     3    1
    42    18     9   ar
    43    18    13   ar
    44    33    40    1
    45    33    41    1
