@<TRIPOS>MOLECULE
*****
 28 30 0 0 0
SMALL
GASTEIGER

@<TRIPOS>ATOM
      1 N          62.7464   89.4786   10.1970 N.am    1  UNL1       -0.2996
      2 C          62.9985   90.1269   11.5261 C.2     1  UNL1        0.2651
      3 O          62.2689   89.6462   12.7452 O.2     1  UNL1       -0.2684
      4 H          63.2253   89.7941    9.3967 H       1  UNL1        0.1498
      5 C          63.9801   91.2558   11.6358 C.ar    1  UNL1        0.1517
      6 N          64.3888   92.1797   10.5270 N.ar    1  UNL1       -0.2260
      7 C          65.3866   93.1538   11.0796 C.ar    1  UNL1        0.1239
      8 N          65.5947   92.8319   12.5298 N.ar    1  UNL1       -0.2921
      9 C          66.4634   93.4555   13.5817 C.ar    1  UNL1        0.0811
     10 C          66.4628   92.9059   14.9774 C.ar    1  UNL1        0.0191
     11 C          65.5935   91.7328   15.3211 C.ar    1  UNL1        0.0031
     12 C          64.7248   91.1093   14.2692 C.ar    1  UNL1        0.0193
     13 C          64.7254   91.6589   12.8736 C.ar    1  UNL1        0.0872
     14 C          66.0585   94.2563   10.3160 C.3     1  UNL1        0.0573
     15 C          67.2567   93.9569    9.4645 C.3     1  UNL1        0.0079
     16 C          65.5324   95.6582   10.4038 C.3     1  UNL1        0.0079
     17 C          61.7648   88.3497   10.0872 C.3     1  UNL1        0.0898
     18 N          63.1701   84.0965   10.5177 N.3     1  UNL1       -0.2726
     19 C          63.1534   84.7477    9.1666 C.3     1  UNL1        0.0721
     20 C          62.6850   86.1656    9.0231 C.3     1  UNL1        0.0191
     21 C          62.2332   86.9320   10.2308 C.3     1  UNL1        0.0224
     22 C          62.2500   86.2808   11.5819 C.3     1  UNL1        0.0191
     23 C          62.7184   84.8630   11.7254 C.3     1  UNL1        0.0721
     24 C          63.6386   82.6788   10.6613 C.3     1  UNL1        0.0747
     25 C          62.9991   81.7767   11.6748 C.3     1  UNL1        0.0494
     26 C          63.6878   81.5078   12.9800 C.3     1  UNL1        0.1437
     27 C          61.3846   81.1684   14.1334 C.3     1  UNL1        0.1741
     28 O          62.8783   81.2739   14.2210 O.3     1  UNL1       -0.3511
@<TRIPOS>BOND
     1    27    28    1
     2    28    26    1
     3    26    25    1
     4    25    24    1
     5    24    18    1
     6    18    19    1
     7    19    20    1
     8    20    21    1
     9    21    17    1
    10    17     1    1
    11     1     2   am
    12     2     3    2
    13     2     5    1
    14     5     6   ar
    15     6     7   ar
    16     7    14    1
    17    14    15    1
    18    14    16    1
    19     7     8   ar
    20     8     9   ar
    21     9    10   ar
    22    10    11   ar
    23    11    12   ar
    24    12    13   ar
    25    21    22    1
    26    22    23    1
    27    23    18    1
    28    13     5   ar
    29    13     8   ar
    30     1     4    1
@<TRIPOS>MOLECULE
*****
 28 30 0 0 0
SMALL
GASTEIGER

@<TRIPOS>ATOM
      1 N          62.6571   88.1787   12.0115 N.am    1  UNL1       -0.2996
      2 C          62.4014   86.9455   11.1966 C.2     1  UNL1        0.2651
      3 O          61.8362   87.0652    9.8124 O.2     1  UNL1       -0.2684
      4 H          63.0280   88.1002   12.9200 H       1  UNL1        0.1498
      5 C          62.7109   85.5928   11.7660 C.ar    1  UNL1        0.1517
      6 N          62.4210   84.2739   11.1129 N.ar    1  UNL1       -0.2260
      7 C          62.8956   83.1874   12.0318 C.ar    1  UNL1        0.1239
      8 N          63.4788   83.8348   13.2528 N.ar    1  UNL1       -0.2921
      9 C          64.0990   83.2627   14.4929 C.ar    1  UNL1        0.0811
     10 C          64.6050   84.1772   15.5688 C.ar    1  UNL1        0.0191
     11 C          64.4909   85.6638   15.4045 C.ar    1  UNL1        0.0031
     12 C          63.8707   86.2359   14.1644 C.ar    1  UNL1        0.0193
     13 C          63.3646   85.3214   13.0885 C.ar    1  UNL1        0.0872
     14 C          62.8032   81.7125   11.7749 C.3     1  UNL1        0.0573
     15 C          62.2713   80.7978   12.8382 C.3     1  UNL1        0.0079
     16 C          63.2427   81.1522   10.4548 C.3     1  UNL1        0.0079
     17 C          62.3476   89.5315   11.4421 C.3     1  UNL1        0.0898
     18 N          65.3702   92.8503   11.7568 N.3     1  UNL1       -0.2726
     19 C          64.6638   92.6000   10.4575 C.3     1  UNL1        0.0721
     20 C          63.6562   91.4936   10.3526 C.3     1  UNL1        0.0191
     21 C          63.3551   90.6377   11.5470 C.3     1  UNL1        0.0224
     22 C          64.0615   90.8881   12.8464 C.3     1  UNL1        0.0191
     23 C          65.0690   91.9943   12.9513 C.3     1  UNL1        0.0721
     24 C          66.3778   93.9566   11.8618 C.3     1  UNL1        0.0747
     25 C          66.3889   95.0597   10.8454 C.3     1  UNL1        0.0494
     26 C          67.3432   95.0049    9.6895 C.3     1  UNL1        0.1437
     27 C          68.4208   92.7151    9.1019 C.3     1  UNL1        0.1741
     28 O          68.5183   94.0735    9.7304 O.3     1  UNL1       -0.3511
@<TRIPOS>BOND
     1    27    28    1
     2    28    26    1
     3    26    25    1
     4    25    24    1
     5    24    18    1
     6    18    19    1
     7    19    20    1
     8    20    21    1
     9    21    17    1
    10    17     1    1
    11     1     2   am
    12     2     3    2
    13     2     5    1
    14     5     6   ar
    15     6     7   ar
    16     7    14    1
    17    14    15    1
    18    14    16    1
    19     7     8   ar
    20     8     9   ar
    21     9    10   ar
    22    10    11   ar
    23    11    12   ar
    24    12    13   ar
    25    21    22    1
    26    22    23    1
    27    23    18    1
    28    13     5   ar
    29    13     8   ar
    30     1     4    1
@<TRIPOS>MOLECULE
*****
 28 30 0 0 0
SMALL
GASTEIGER

@<TRIPOS>ATOM
      1 N          64.2804   87.7474   15.0187 N.am    1  UNL1       -0.2996
      2 C          63.6711   89.1152   15.1089 C.2     1  UNL1        0.2651
      3 O          62.5329   89.3684   16.0523 O.2     1  UNL1       -0.2684
      4 H          65.0275   87.5812   14.3995 H       1  UNL1        0.1498
      5 C          64.2002   90.2297   14.2556 C.ar    1  UNL1        0.1517
      6 N          65.1882   91.2744   14.6827 N.ar    1  UNL1       -0.2260
      7 C          65.4327   92.1854   13.5164 C.ar    1  UNL1        0.1239
      8 N          64.5959   91.7038   12.3685 N.ar    1  UNL1       -0.2921
      9 C          64.4291   92.2097   10.9663 C.ar    1  UNL1        0.0811
     10 C          63.5005   91.5068   10.0210 C.ar    1  UNL1        0.0191
     11 C          62.7388   90.2981   10.4778 C.ar    1  UNL1        0.0031
     12 C          62.9056   89.7922   11.8800 C.ar    1  UNL1        0.0193
     13 C          63.8341   90.4950   12.8254 C.ar    1  UNL1        0.0872
     14 C          66.3526   93.3702   13.5008 C.3     1  UNL1        0.0573
     15 C          67.3000   93.5992   14.6410 C.3     1  UNL1        0.0079
     16 C          66.3251   94.3259   12.3451 C.3     1  UNL1        0.0079
     17 C          63.7514   86.6330   15.8720 C.3     1  UNL1        0.0898
     18 N          63.5981   82.4373   14.2523 N.3     1  UNL1       -0.2726
     19 C          62.4683   82.9600   15.0891 C.3     1  UNL1        0.0721
     20 C          62.5194   84.3586   15.6290 C.3     1  UNL1        0.0191
     21 C          63.7004   85.2345   15.3321 C.3     1  UNL1        0.0224
     22 C          64.8302   84.7118   14.4953 C.3     1  UNL1        0.0191
     23 C          64.7791   83.3133   13.9555 C.3     1  UNL1        0.0721
     24 C          63.5471   81.0388   13.7124 C.3     1  UNL1        0.0747
     25 C          62.6424   80.7118   12.5616 C.3     1  UNL1        0.0494
     26 C          63.0347   81.0974   11.1661 C.3     1  UNL1        0.1437
     27 C          64.1739   83.2036   10.1581 C.3     1  UNL1        0.1741
     28 O          64.2653   81.9231   10.9339 O.3     1  UNL1       -0.3511
@<TRIPOS>BOND
     1    27    28    1
     2    28    26    1
     3    26    25    1
     4    25    24    1
     5    24    18    1
     6    18    19    1
     7    19    20    1
     8    20    21    1
     9    21    17    1
    10    17     1    1
    11     1     2   am
    12     2     3    2
    13     2     5    1
    14     5     6   ar
    15     6     7   ar
    16     7    14    1
    17    14    15    1
    18    14    16    1
    19     7     8   ar
    20     8     9   ar
    21     9    10   ar
    22    10    11   ar
    23    11    12   ar
    24    12    13   ar
    25    21    22    1
    26    22    23    1
    27    23    18    1
    28    13     5   ar
    29    13     8   ar
    30     1     4    1
@<TRIPOS>MOLECULE
*****
 28 30 0 0 0
SMALL
GASTEIGER

@<TRIPOS>ATOM
      1 N          64.3101   87.8286   14.9249 N.am    1  UNL1       -0.2996
      2 C          63.7517   89.2168   15.0315 C.2     1  UNL1        0.2651
      3 O          62.6761   89.5176   16.0327 O.2     1  UNL1       -0.2684
      4 H          65.0161   87.6311   14.2678 H       1  UNL1        0.1498
      5 C          64.2690   90.3040   14.1369 C.ar    1  UNL1        0.1517
      6 N          63.9106   90.5039   12.6942 N.ar    1  UNL1       -0.2260
      7 C          64.6557   91.7057   12.1937 C.ar    1  UNL1        0.1239
      8 N          65.4747   92.2486   13.3270 N.ar    1  UNL1       -0.2921
      9 C          66.4071   93.4198   13.4206 C.ar    1  UNL1        0.0811
     10 C          67.1005   93.7247   14.7152 C.ar    1  UNL1        0.0191
     11 C          66.8616   92.8584   15.9163 C.ar    1  UNL1        0.0031
     12 C          65.9291   91.6872   15.8227 C.ar    1  UNL1        0.0193
     13 C          65.2357   91.3823   14.5281 C.ar    1  UNL1        0.0872
     14 C          64.5929   92.2662   10.8037 C.3     1  UNL1        0.0573
     15 C          63.5264   91.8033    9.8558 C.3     1  UNL1        0.0079
     16 C          65.5964   93.2895   10.3616 C.3     1  UNL1        0.0079
     17 C          63.7927   86.7414   15.8195 C.3     1  UNL1        0.0898
     18 N          63.5836   82.5035   14.3206 N.3     1  UNL1       -0.2726
     19 C          62.4516   83.0715   15.1243 C.3     1  UNL1        0.0721
     20 C          62.5213   84.4842   15.6240 C.3     1  UNL1        0.0191
     21 C          63.7231   85.3288   15.3199 C.3     1  UNL1        0.0224
     22 C          64.8550   84.7608   14.5162 C.3     1  UNL1        0.0191
     23 C          64.7853   83.3482   14.0166 C.3     1  UNL1        0.0721
     24 C          63.5139   81.0909   13.8210 C.3     1  UNL1        0.0747
     25 C          62.6298   80.7494   12.6583 C.3     1  UNL1        0.0494
     26 C          62.9823   81.2295   11.2817 C.3     1  UNL1        0.1437
     27 C          64.3166   83.2565   10.3538 C.3     1  UNL1        0.1741
     28 O          64.2902   81.9236   11.0413 O.3     1  UNL1       -0.3511
@<TRIPOS>BOND
     1    27    28    1
     2    28    26    1
     3    26    25    1
     4    25    24    1
     5    24    18    1
     6    18    19    1
     7    19    20    1
     8    20    21    1
     9    21    17    1
    10    17     1    1
    11     1     2   am
    12     2     3    2
    13     2     5    1
    14     5     6   ar
    15     6     7   ar
    16     7    14    1
    17    14    15    1
    18    14    16    1
    19     7     8   ar
    20     8     9   ar
    21     9    10   ar
    22    10    11   ar
    23    11    12   ar
    24    12    13   ar
    25    21    22    1
    26    22    23    1
    27    23    18    1
    28    13     5   ar
    29    13     8   ar
    30     1     4    1
@<TRIPOS>MOLECULE
*****
 28 30 0 0 0
SMALL
GASTEIGER

@<TRIPOS>ATOM
      1 N          63.1779   89.4059   10.7978 N.am    1  UNL1       -0.2996
      2 C          62.9166   89.9494   12.1713 C.2     1  UNL1        0.2651
      3 O          61.6837   89.5365   12.9192 O.2     1  UNL1       -0.2684
      4 H          63.9870   89.6769   10.3068 H       1  UNL1        0.1498
      5 C          63.8883   90.9058   12.7968 C.ar    1  UNL1        0.1517
      6 N          64.2623   90.9592   14.2484 N.ar    1  UNL1       -0.2260
      7 C          65.2617   92.0631   14.4291 C.ar    1  UNL1        0.1239
      8 N          65.5053   92.6919   13.0893 N.ar    1  UNL1       -0.2921
      9 C          66.3903   93.8234   12.6575 C.ar    1  UNL1        0.0811
     10 C          66.4265   94.2396   11.2169 C.ar    1  UNL1        0.0191
     11 C          65.5777   93.5243   10.2080 C.ar    1  UNL1        0.0031
     12 C          64.6926   92.3929   10.6398 C.ar    1  UNL1        0.0193
     13 C          64.6564   91.9767   12.0804 C.ar    1  UNL1        0.0872
     14 C          65.9047   92.4673   15.7227 C.3     1  UNL1        0.0573
     15 C          65.0864   92.5347   16.9781 C.3     1  UNL1        0.0079
     16 C          67.3658   92.8040   15.7610 C.3     1  UNL1        0.0079
     17 C          62.2062   88.4496   10.1723 C.3     1  UNL1        0.0898
     18 N          62.9343   84.0160   10.4247 N.3     1  UNL1       -0.2726
     19 C          63.0286   84.7175    9.1022 C.3     1  UNL1        0.0721
     20 C          62.7859   86.1954    9.0181 C.3     1  UNL1        0.0191
     21 C          62.4489   86.9718   10.2565 C.3     1  UNL1        0.0224
     22 C          62.3546   86.2703   11.5790 C.3     1  UNL1        0.0191
     23 C          62.5973   84.7925   11.6631 C.3     1  UNL1        0.0721
     24 C          63.1770   82.5382   10.5089 C.3     1  UNL1        0.0747
     25 C          62.8456   81.7944   11.7686 C.3     1  UNL1        0.0494
     26 C          63.8832   81.6338   12.8398 C.3     1  UNL1        0.1437
     27 C          62.2890   82.5799   14.6602 C.3     1  UNL1        0.1741
     28 O          63.5004   81.7798   14.2828 O.3     1  UNL1       -0.3511
@<TRIPOS>BOND
     1    27    28    1
     2    28    26    1
     3    26    25    1
     4    25    24    1
     5    24    18    1
     6    18    19    1
     7    19    20    1
     8    20    21    1
     9    21    17    1
    10    17     1    1
    11     1     2   am
    12     2     3    2
    13     2     5    1
    14     5     6   ar
    15     6     7   ar
    16     7    14    1
    17    14    15    1
    18    14    16    1
    19     7     8   ar
    20     8     9   ar
    21     9    10   ar
    22    10    11   ar
    23    11    12   ar
    24    12    13   ar
    25    21    22    1
    26    22    23    1
    27    23    18    1
    28    13     5   ar
    29    13     8   ar
    30     1     4    1
@<TRIPOS>MOLECULE
*****
 28 30 0 0 0
SMALL
GASTEIGER

@<TRIPOS>ATOM
      1 N          59.7612   90.2304    5.8036 N.am    1  UNL1       -0.2996
      2 C          59.0329   91.2970    5.0406 C.2     1  UNL1        0.2651
      3 O          57.5726   91.5323    5.2891 O.2     1  UNL1       -0.2684
      4 H          60.7197   90.0759    5.6405 H       1  UNL1        0.1498
      5 C          59.7651   92.1281    4.0291 C.ar    1  UNL1        0.1517
      6 N          59.2219   93.3314    3.3171 N.ar    1  UNL1       -0.2260
      7 C          60.2902   93.8488    2.4000 C.ar    1  UNL1        0.1239
      8 N          61.4937   92.9654    2.5453 N.ar    1  UNL1       -0.2921
      9 C          62.8431   92.9919    1.8909 C.ar    1  UNL1        0.0811
     10 C          63.8680   91.9549    2.2433 C.ar    1  UNL1        0.0191
     11 C          63.5435   90.8915    3.2502 C.ar    1  UNL1        0.0031
     12 C          62.1941   90.8650    3.9046 C.ar    1  UNL1        0.0193
     13 C          61.1692   91.9019    3.5522 C.ar    1  UNL1        0.0872
     14 C          60.1752   95.0405    1.4963 C.3     1  UNL1        0.0573
     15 C          59.3090   94.9737    0.2735 C.3     1  UNL1        0.0079
     16 C          60.9264   96.2990    1.8153 C.3     1  UNL1        0.0079
     17 C          59.0289   89.3992    6.8151 C.3     1  UNL1        0.0898
     18 N          61.3137   87.2641   10.0511 N.3     1  UNL1       -0.2726
     19 C          60.6501   86.4791    8.9586 C.3     1  UNL1        0.0721
     20 C          59.8885   87.1909    7.8799 C.3     1  UNL1        0.0191
     21 C          59.7905   88.6876    7.8937 C.3     1  UNL1        0.0224
     22 C          60.4540   89.4726    8.9862 C.3     1  UNL1        0.0191
     23 C          61.2156   88.7609   10.0648 C.3     1  UNL1        0.0721
     24 C          62.0752   86.5525   11.1297 C.3     1  UNL1        0.0747
     25 C          62.3101   85.0743   11.0315 C.3     1  UNL1        0.0494
     26 C          62.6184   84.2801   12.2661 C.3     1  UNL1        0.1437
     27 C          62.5207   84.0485   14.8520 C.3     1  UNL1        0.1741
     28 O          62.4447   84.9013   13.6203 O.3     1  UNL1       -0.3511
@<TRIPOS>BOND
     1    27    28    1
     2    28    26    1
     3    26    25    1
     4    25    24    1
     5    24    18    1
     6    18    19    1
     7    19    20    1
     8    20    21    1
     9    21    17    1
    10    17     1    1
    11     1     2   am
    12     2     3    2
    13     2     5    1
    14     5     6   ar
    15     6     7   ar
    16     7    14    1
    17    14    15    1
    18    14    16    1
    19     7     8   ar
    20     8     9   ar
    21     9    10   ar
    22    10    11   ar
    23    11    12   ar
    24    12    13   ar
    25    21    22    1
    26    22    23    1
    27    23    18    1
    28    13     5   ar
    29    13     8   ar
    30     1     4    1
@<TRIPOS>MOLECULE
*****
 28 30 0 0 0
SMALL
GASTEIGER

@<TRIPOS>ATOM
      1 N          59.8547   89.1136    7.7390 N.am    1  UNL1       -0.2996
      2 C          59.7182   87.7875    8.4266 C.2     1  UNL1        0.2651
      3 O          58.5992   86.8609    8.0536 O.2     1  UNL1       -0.2684
      4 H          60.5892   89.7218    7.9838 H       1  UNL1        0.1498
      5 C          60.7008   87.3880    9.4873 C.ar    1  UNL1        0.1517
      6 N          61.0850   85.9840    9.8494 N.ar    1  UNL1       -0.2260
      7 C          62.0934   86.0507   10.9579 C.ar    1  UNL1        0.1239
      8 N          62.3324   87.4959   11.2808 N.ar    1  UNL1       -0.2921
      9 C          63.2225   88.1661   12.2851 C.ar    1  UNL1        0.0811
     10 C          63.2520   89.6627   12.3804 C.ar    1  UNL1        0.0191
     11 C          62.3913   90.4892   11.4714 C.ar    1  UNL1        0.0031
     12 C          61.5012   89.8191   10.4672 C.ar    1  UNL1        0.0193
     13 C          61.4717   88.3224   10.3719 C.ar    1  UNL1        0.0872
     14 C          62.7479   84.8781   11.6262 C.3     1  UNL1        0.0573
     15 C          63.4481   83.8393   10.8012 C.3     1  UNL1        0.0079
     16 C          62.7022   84.7442   13.1195 C.3     1  UNL1        0.0079
     17 C          58.8721   89.5131    6.6784 C.3     1  UNL1        0.0898
     18 N          60.0319   92.5490    3.5657 N.3     1  UNL1       -0.2726
     19 C          61.0797   91.6733    4.1864 C.3     1  UNL1        0.0721
     20 C          60.6931   90.6613    5.2240 C.3     1  UNL1        0.0191
     21 C          59.2586   90.5251    5.6408 C.3     1  UNL1        0.0224
     22 C          58.2108   91.4008    5.0202 C.3     1  UNL1        0.0191
     23 C          58.5974   92.4127    3.9827 C.3     1  UNL1        0.0721
     24 C          60.4184   93.5610    2.5282 C.3     1  UNL1        0.0747
     25 C          61.5255   93.2592    1.5622 C.3     1  UNL1        0.0494
     26 C          61.3662   92.1544    0.5602 C.3     1  UNL1        0.1437
     27 C          59.4747   92.9085   -1.0533 C.3     1  UNL1        0.1741
     28 O          60.0328   91.9108   -0.0822 O.3     1  UNL1       -0.3511
@<TRIPOS>BOND
     1    27    28    1
     2    28    26    1
     3    26    25    1
     4    25    24    1
     5    24    18    1
     6    18    19    1
     7    19    20    1
     8    20    21    1
     9    21    17    1
    10    17     1    1
    11     1     2   am
    12     2     3    2
    13     2     5    1
    14     5     6   ar
    15     6     7   ar
    16     7    14    1
    17    14    15    1
    18    14    16    1
    19     7     8   ar
    20     8     9   ar
    21     9    10   ar
    22    10    11   ar
    23    11    12   ar
    24    12    13   ar
    25    21    22    1
    26    22    23    1
    27    23    18    1
    28    13     5   ar
    29    13     8   ar
    30     1     4    1
@<TRIPOS>MOLECULE
*****
 28 30 0 0 0
SMALL
GASTEIGER

@<TRIPOS>ATOM
      1 N          63.7532   90.6127   10.4302 N.am    1  UNL1       -0.2996
      2 C          62.4285   89.9865   10.7518 C.2     1  UNL1        0.2651
      3 O          61.3955   90.7651   11.5111 O.2     1  UNL1       -0.2684
      4 H          64.4312   90.1017    9.9319 H       1  UNL1        0.1498
      5 C          62.1370   88.5817   10.3140 C.ar    1  UNL1        0.1517
      6 N          62.8505   87.3472   10.7796 N.ar    1  UNL1       -0.2260
      7 C          62.2353   86.1674   10.0871 C.ar    1  UNL1        0.1239
      8 N          61.1416   86.6728    9.1935 N.ar    1  UNL1       -0.2921
      9 C          60.1932   85.9670    8.2703 C.ar    1  UNL1        0.0811
     10 C          59.1842   86.7535    7.4872 C.ar    1  UNL1        0.0191
     11 C          59.1234   88.2457    7.6275 C.ar    1  UNL1        0.0031
     12 C          60.0718   88.9514    8.5507 C.ar    1  UNL1        0.0193
     13 C          61.0809   88.1650    9.3337 C.ar    1  UNL1        0.0872
     14 C          62.6422   84.7338   10.2582 C.3     1  UNL1        0.0573
     15 C          62.3532   84.0206   11.5459 C.3     1  UNL1        0.0079
     16 C          63.3381   84.0134    9.1418 C.3     1  UNL1        0.0079
     17 C          64.0447   92.0175   10.8680 C.3     1  UNL1        0.0898
     18 N          66.1544   92.7657   14.7718 N.3     1  UNL1       -0.2726
     19 C          66.3739   93.6904   13.6114 C.3     1  UNL1        0.0721
     20 C          65.6706   93.4410   12.3100 C.3     1  UNL1        0.0191
     21 C          64.7479   92.2668   12.1692 C.3     1  UNL1        0.0224
     22 C          64.5283   91.3421   13.3297 C.3     1  UNL1        0.0191
     23 C          65.2316   91.5915   14.6309 C.3     1  UNL1        0.0721
     24 C          66.8576   93.0150   16.0730 C.3     1  UNL1        0.0747
     25 C          68.2551   92.5102   16.2790 C.3     1  UNL1        0.0494
     26 C          69.4011   93.1626   15.5641 C.3     1  UNL1        0.1437
     27 C          69.0121   91.6515   13.4867 C.3     1  UNL1        0.1741
     28 O          69.8689   92.6209   14.2458 O.3     1  UNL1       -0.3511
@<TRIPOS>BOND
     1    27    28    1
     2    28    26    1
     3    26    25    1
     4    25    24    1
     5    24    18    1
     6    18    19    1
     7    19    20    1
     8    20    21    1
     9    21    17    1
    10    17     1    1
    11     1     2   am
    12     2     3    2
    13     2     5    1
    14     5     6   ar
    15     6     7   ar
    16     7    14    1
    17    14    15    1
    18    14    16    1
    19     7     8   ar
    20     8     9   ar
    21     9    10   ar
    22    10    11   ar
    23    11    12   ar
    24    12    13   ar
    25    21    22    1
    26    22    23    1
    27    23    18    1
    28    13     5   ar
    29    13     8   ar
    30     1     4    1
@<TRIPOS>MOLECULE
*****
 28 30 0 0 0
SMALL
GASTEIGER

@<TRIPOS>ATOM
      1 N          63.7035   90.7485   10.3234 N.am    1  UNL1       -0.2996
      2 C          62.4496   90.1060   10.8382 C.2     1  UNL1        0.2651
      3 O          61.5914   90.8281   11.8342 O.2     1  UNL1       -0.2684
      4 H          64.2668   90.2746    9.6697 H       1  UNL1        0.1498
      5 C          62.0540   88.7415   10.3570 C.ar    1  UNL1        0.1517
      6 N          61.2880   88.4362    9.1040 N.ar    1  UNL1       -0.2260
      7 C          61.1155   86.9487    9.0170 C.ar    1  UNL1        0.1239
      8 N          61.7750   86.3346   10.2162 N.ar    1  UNL1       -0.2921
      9 C          61.9223   84.9097   10.6610 C.ar    1  UNL1        0.0811
     10 C          62.6496   84.5928   11.9340 C.ar    1  UNL1        0.0191
     11 C          63.2296   85.7008   12.7622 C.ar    1  UNL1        0.0031
     12 C          63.0823   87.1257   12.3174 C.ar    1  UNL1        0.0193
     13 C          62.3550   87.4426   11.0444 C.ar    1  UNL1        0.0872
     14 C          60.4079   86.2057    7.9228 C.3     1  UNL1        0.0573
     15 C          58.9841   86.5395    7.5887 C.3     1  UNL1        0.0079
     16 C          61.1238   85.1289    7.1628 C.3     1  UNL1        0.0079
     17 C          64.0991   92.1130   10.8046 C.3     1  UNL1        0.0898
     18 N          66.2420   92.5790   14.7342 N.3     1  UNL1       -0.2726
     19 C          65.3634   91.3869   14.4958 C.3     1  UNL1        0.0721
     20 C          64.6491   91.2316   13.1858 C.3     1  UNL1        0.0191
     21 C          64.8134   92.2684   12.1144 C.3     1  UNL1        0.0224
     22 C          65.6920   93.4605   12.3528 C.3     1  UNL1        0.0191
     23 C          66.4063   93.6158   13.6627 C.3     1  UNL1        0.0721
     24 C          66.9563   92.7344   16.0440 C.3     1  UNL1        0.0747
     25 C          68.4333   92.4862   16.1267 C.3     1  UNL1        0.0494
     26 C          69.3617   93.1552   15.1569 C.3     1  UNL1        0.1437
     27 C          69.0420   91.6402   13.0706 C.3     1  UNL1        0.1741
     28 O          69.9452   92.3745   14.0167 O.3     1  UNL1       -0.3511
@<TRIPOS>BOND
     1    27    28    1
     2    28    26    1
     3    26    25    1
     4    25    24    1
     5    24    18    1
     6    18    19    1
     7    19    20    1
     8    20    21    1
     9    21    17    1
    10    17     1    1
    11     1     2   am
    12     2     3    2
    13     2     5    1
    14     5     6   ar
    15     6     7   ar
    16     7    14    1
    17    14    15    1
    18    14    16    1
    19     7     8   ar
    20     8     9   ar
    21     9    10   ar
    22    10    11   ar
    23    11    12   ar
    24    12    13   ar
    25    21    22    1
    26    22    23    1
    27    23    18    1
    28    13     5   ar
    29    13     8   ar
    30     1     4    1
