@<TRIPOS>MOLECULE
*****
 39 42 0 0 0
SMALL
GASTEIGER

@<TRIPOS>ATOM
      1 C          61.9510   88.5022   11.0639 C.3     1  UNL1        0.0808
      2 C          63.6939   89.3060   12.8150 C.ar    1  UNL1        0.2211
      3 N          64.7202   90.3042   13.2628 N.ar    1  UNL1       -0.2119
      4 C          65.0298   91.4967   12.4072 C.ar    1  UNL1        0.0844
      5 C          66.0561   92.4948   12.8549 C.ar    1  UNL1        0.0197
      6 C          66.3658   93.6873   11.9993 C.ar    1  UNL1        0.0082
      7 C          65.6492   93.8816   10.6959 C.ar    1  UNL1        0.0347
      8 BR         65.9589   95.0741    9.8403 Br      1  UNL1       -0.0490
      9 C          64.6229   92.8835   10.2482 C.ar    1  UNL1        0.0082
     10 C          64.3132   91.6910   11.1038 C.ar    1  UNL1        0.0181
     11 C          63.2870   90.6928   10.6561 C.ar    1  UNL1        0.0023
     12 C          62.9773   89.5003   11.5117 C.ar    1  UNL1        0.0375
     13 C          64.3744   87.6498   14.6975 C.3     1  UNL1        0.2542
     14 O          63.3842   88.1135   13.6706 O.3     1  UNL1       -0.4563
     15 C          62.3832   87.2291   10.3987 C.ar    1  UNL1        0.0245
     16 C          62.8491   87.2485    8.9729 C.ar    1  UNL1        0.0200
     17 C          63.2813   85.9755    8.3078 C.ar    1  UNL1        0.1019
     18 N          63.2476   84.6830    9.0683 N.ar    1  UNL1       -0.2076
     19 C          62.7818   84.6636   10.4940 C.ar    1  UNL1        0.2598
     20 C          62.3496   85.9367   11.1592 C.ar    1  UNL1        0.1879
     21 O          62.7482   83.3711   11.2545 O.3     1  UNL1       -0.4541
     22 C          63.7439   82.2928   10.9452 C.3     1  UNL1        0.2543
     23 O          61.8837   85.9173   12.5848 O.3     1  UNL1       -0.4670
     24 C          62.4091   84.8790   13.5315 C.3     1  UNL1        0.2527
     25 C          60.4925   88.7771   11.2813 C.3     1  UNL1        0.1159
     26 O          60.7842   89.2132   12.6865 O.3     1  UNL1       -0.3820
     27 H          61.4705   88.6424   13.0663 H       1  UNL1        0.2107
     28 C          60.2009   88.3411    9.8761 C.ar    1  UNL1        0.0021
     29 C          59.9426   86.8938    9.5782 C.ar    1  UNL1       -0.0020
     30 C          59.6509   86.4578    8.1728 C.ar    1  UNL1       -0.0006
     31 C          59.6175   87.4690    7.0655 C.ar    1  UNL1       -0.0043
     32 C          59.8757   88.9163    7.3634 C.ar    1  UNL1       -0.0221
     33 C          59.8422   89.9275    6.2559 C.3     1  UNL1        0.0310
     34 C          60.1674   89.3523    8.7686 C.ar    1  UNL1       -0.0063
     35 C          59.0341   89.0520   11.4987 C.3     1  UNL1        0.0491
     36 C          58.5610   89.5929   12.8154 C.3     1  UNL1        0.0750
     37 N          58.0579   88.6563   13.8737 N.3     1  UNL1       -0.2702
     38 C          56.7736   87.9098   13.6657 C.3     1  UNL1        0.0897
     39 C          58.8392   88.4663   15.1400 C.3     1  UNL1        0.0897
@<TRIPOS>BOND
     1    13    14    1
     2    14     2    1
     3     2     3   ar
     4     3     4   ar
     5     4     5   ar
     6     5     6   ar
     7     6     7   ar
     8     7     8    1
     9     7     9   ar
    10     9    10   ar
    11    10    11   ar
    12    11    12   ar
    13     1    12    1
    14     1    15    1
    15    15    16   ar
    16    16    17   ar
    17    17    18   ar
    18    18    19   ar
    19    19    21    1
    20    21    22    1
    21    19    20   ar
    22    20    23    1
    23    23    24    1
    24     1    25    1
    25    25    26    1
    26    25    35    1
    27    35    36    1
    28    36    37    1
    29    37    38    1
    30    37    39    1
    31    25    28    1
    32    28    29   ar
    33    29    30   ar
    34    30    31   ar
    35    31    32   ar
    36    32    33    1
    37    32    34   ar
    38    12     2   ar
    39    20    15   ar
    40    34    28   ar
    41    10     4   ar
    42    26    27    1
@<TRIPOS>MOLECULE
*****
 39 42 0 0 0
SMALL
GASTEIGER

@<TRIPOS>ATOM
      1 C          62.0436   87.9307   10.6860 C.3     1  UNL1        0.0808
      2 C          63.3531   87.6053   12.9062 C.ar    1  UNL1        0.2211
      3 N          63.8593   86.7077   13.9963 N.ar    1  UNL1       -0.2119
      4 C          63.5622   85.2380   13.9561 C.ar    1  UNL1        0.0844
      5 C          64.0683   84.3404   15.0461 C.ar    1  UNL1        0.0197
      6 C          63.7712   82.8707   15.0059 C.ar    1  UNL1        0.0082
      7 C          62.9679   82.2985   13.8758 C.ar    1  UNL1        0.0347
      8 BR         62.6708   80.8288   13.8356 Br      1  UNL1       -0.0490
      9 C          62.4617   83.1961   12.7857 C.ar    1  UNL1        0.0082
     10 C          62.7588   84.6658   12.8259 C.ar    1  UNL1        0.0181
     11 C          62.2527   85.5634   11.7359 C.ar    1  UNL1        0.0023
     12 C          62.5498   87.0331   11.7760 C.ar    1  UNL1        0.0375
     13 C          63.4904   89.8377   14.2281 C.3     1  UNL1        0.2542
     14 O          63.6502   89.0750   12.9464 O.3     1  UNL1       -0.4563
     15 C          61.2489   87.3569    9.5505 C.ar    1  UNL1        0.0245
     16 C          59.8180   87.7631    9.3559 C.ar    1  UNL1        0.0200
     17 C          59.0233   87.1893    8.2205 C.ar    1  UNL1        0.1019
     18 N          59.6595   86.2094    7.2796 N.ar    1  UNL1       -0.2076
     19 C          61.0902   85.8032    7.4743 C.ar    1  UNL1        0.2598
     20 C          61.8849   86.3770    8.6097 C.ar    1  UNL1        0.1879
     21 O          61.7263   84.8233    6.5335 O.3     1  UNL1       -0.4541
     22 C          60.8698   83.9880    5.6287 C.3     1  UNL1        0.2543
     23 O          63.3157   85.9709    8.8044 O.3     1  UNL1       -0.4670
     24 C          63.6638   84.5266    9.0117 C.3     1  UNL1        0.2527
     25 C          62.3321   89.4020   10.7314 C.3     1  UNL1        0.1159
     26 O          63.7116   89.1478   10.2001 O.3     1  UNL1       -0.3820
     27 H          64.0655   88.3355   10.5947 H       1  UNL1        0.2107
     28 C          60.9525   89.6561   11.2626 C.ar    1  UNL1        0.0021
     29 C          60.1395   90.7957   10.7239 C.ar    1  UNL1       -0.0020
     30 C          58.7599   91.0498   11.2552 C.ar    1  UNL1       -0.0006
     31 C          58.1934   90.1643   12.3252 C.ar    1  UNL1       -0.0043
     32 C          59.0064   89.0246   12.8639 C.ar    1  UNL1       -0.0221
     33 C          58.4398   88.1390   13.9338 C.3     1  UNL1        0.0310
     34 C          60.3859   88.7705   12.3326 C.ar    1  UNL1       -0.0063
     35 C          62.6206   90.8732   10.7768 C.3     1  UNL1        0.0491
     36 C          63.8515   91.4170   10.1141 C.3     1  UNL1        0.0750
     37 N          64.8529   92.1952   10.9151 N.3     1  UNL1       -0.2702
     38 C          65.8542   93.0687   10.2191 C.3     1  UNL1        0.0897
     39 C          64.8530   92.1000   12.4120 C.3     1  UNL1        0.0897
@<TRIPOS>BOND
     1    13    14    1
     2    14     2    1
     3     2     3   ar
     4     3     4   ar
     5     4     5   ar
     6     5     6   ar
     7     6     7   ar
     8     7     8    1
     9     7     9   ar
    10     9    10   ar
    11    10    11   ar
    12    11    12   ar
    13     1    12    1
    14     1    15    1
    15    15    16   ar
    16    16    17   ar
    17    17    18   ar
    18    18    19   ar
    19    19    21    1
    20    21    22    1
    21    19    20   ar
    22    20    23    1
    23    23    24    1
    24     1    25    1
    25    25    26    1
    26    25    35    1
    27    35    36    1
    28    36    37    1
    29    37    38    1
    30    37    39    1
    31    25    28    1
    32    28    29   ar
    33    29    30   ar
    34    30    31   ar
    35    31    32   ar
    36    32    33    1
    37    32    34   ar
    38    12     2   ar
    39    20    15   ar
    40    34    28   ar
    41    10     4   ar
    42    26    27    1
@<TRIPOS>MOLECULE
*****
 39 42 0 0 0
SMALL
GASTEIGER

@<TRIPOS>ATOM
      1 C          62.3386   89.3158   12.2848 C.3     1  UNL1        0.0808
      2 C          63.3953   87.7174   14.0394 C.ar    1  UNL1        0.2211
      3 N          63.8872   86.3536   14.4244 N.ar    1  UNL1       -0.2119
      4 C          63.8144   85.2244   13.4397 C.ar    1  UNL1        0.0844
      5 C          64.3063   83.8607   13.8246 C.ar    1  UNL1        0.0197
      6 C          64.2335   82.7316   12.8398 C.ar    1  UNL1        0.0082
      7 C          63.6688   82.9662   11.4702 C.ar    1  UNL1        0.0347
      8 BR         63.5959   81.8370   10.4854 Br      1  UNL1       -0.0490
      9 C          63.1768   84.3300   11.0852 C.ar    1  UNL1        0.0082
     10 C          63.2496   85.4591   12.0699 C.ar    1  UNL1        0.0181
     11 C          62.7577   86.8228   11.6850 C.ar    1  UNL1        0.0023
     12 C          62.8306   87.9520   12.6698 C.ar    1  UNL1        0.0375
     13 C          63.1570   88.6011   16.4710 C.3     1  UNL1        0.2542
     14 O          63.4681   88.8465   15.0242 O.3     1  UNL1       -0.4563
     15 C          63.3042   90.3461   11.7787 C.ar    1  UNL1        0.0245
     16 C          63.5694   90.4666   10.3072 C.ar    1  UNL1        0.0200
     17 C          64.5350   91.4969    9.8011 C.ar    1  UNL1        0.1019
     18 N          65.2353   92.4067   10.7664 N.ar    1  UNL1       -0.2076
     19 C          64.9700   92.2862   12.2378 C.ar    1  UNL1        0.2598
     20 C          64.0044   91.2559   12.7440 C.ar    1  UNL1        0.1879
     21 O          65.6703   93.1961   13.2031 O.3     1  UNL1       -0.4541
     22 C          66.4188   94.3934   12.6970 C.3     1  UNL1        0.2543
     23 O          63.7392   91.1354   14.2154 O.3     1  UNL1       -0.4670
     24 C          64.8162   91.4767   15.2021 C.3     1  UNL1        0.2527
     25 C          60.8812   89.6492   12.4060 C.3     1  UNL1        0.1159
     26 O          61.0881   90.0317   13.8416 O.3     1  UNL1       -0.3820
     27 H          61.7200   89.4203   14.2512 H       1  UNL1        0.2107
     28 C          60.6743   89.2667   10.9705 C.ar    1  UNL1        0.0021
     29 C          60.3827   90.3240    9.9471 C.ar    1  UNL1       -0.0020
     30 C          60.1759   89.9414    8.5115 C.ar    1  UNL1       -0.0006
     31 C          60.2606   88.5017    8.0993 C.ar    1  UNL1       -0.0043
     32 C          60.5522   87.4445    9.1226 C.ar    1  UNL1       -0.0221
     33 C          60.6370   86.0047    8.7103 C.3     1  UNL1        0.0310
     34 C          60.7591   87.8269   10.5582 C.ar    1  UNL1       -0.0063
     35 C          59.4238   89.9826   12.5272 C.3     1  UNL1        0.0491
     36 C          58.3914   88.9094   12.3472 C.3     1  UNL1        0.0750
     37 N          57.6912   88.3341   13.5426 N.3     1  UNL1       -0.2702
     38 C          56.2637   87.8869   13.4323 C.3     1  UNL1        0.0897
     39 C          58.4186   88.2062   14.8481 C.3     1  UNL1        0.0897
@<TRIPOS>BOND
     1    13    14    1
     2    14     2    1
     3     2     3   ar
     4     3     4   ar
     5     4     5   ar
     6     5     6   ar
     7     6     7   ar
     8     7     8    1
     9     7     9   ar
    10     9    10   ar
    11    10    11   ar
    12    11    12   ar
    13     1    12    1
    14     1    15    1
    15    15    16   ar
    16    16    17   ar
    17    17    18   ar
    18    18    19   ar
    19    19    21    1
    20    21    22    1
    21    19    20   ar
    22    20    23    1
    23    23    24    1
    24     1    25    1
    25    25    26    1
    26    25    35    1
    27    35    36    1
    28    36    37    1
    29    37    38    1
    30    37    39    1
    31    25    28    1
    32    28    29   ar
    33    29    30   ar
    34    30    31   ar
    35    31    32   ar
    36    32    33    1
    37    32    34   ar
    38    12     2   ar
    39    20    15   ar
    40    34    28   ar
    41    10     4   ar
    42    26    27    1
@<TRIPOS>MOLECULE
*****
 39 42 0 0 0
SMALL
GASTEIGER

@<TRIPOS>ATOM
      1 C          62.4813   86.0290   12.4670 C.3     1  UNL1        0.0808
      2 C          63.8174   87.1319   14.4031 C.ar    1  UNL1        0.2211
      3 N          64.5637   88.3071   14.9620 N.ar    1  UNL1       -0.2119
      4 C          64.7202   89.5543   14.1435 C.ar    1  UNL1        0.0844
      5 C          65.4664   90.7294   14.7022 C.ar    1  UNL1        0.0197
      6 C          65.6229   91.9766   13.8837 C.ar    1  UNL1        0.0082
      7 C          65.0331   92.0487   12.5065 C.ar    1  UNL1        0.0347
      8 BR         65.1896   93.2960   11.6880 Br      1  UNL1       -0.0490
      9 C          64.2868   90.8736   11.9476 C.ar    1  UNL1        0.0082
     10 C          64.1304   89.6264   12.7661 C.ar    1  UNL1        0.0181
     11 C          63.3841   88.4513   12.2074 C.ar    1  UNL1        0.0023
     12 C          63.2276   87.2041   13.0259 C.ar    1  UNL1        0.0375
     13 C          63.4662   85.9812   16.7058 C.3     1  UNL1        0.2542
     14 O          63.6609   85.8847   15.2216 O.3     1  UNL1       -0.4563
     15 C          62.1391   85.9832   11.0073 C.ar    1  UNL1        0.0245
     16 C          63.0425   85.2675   10.0472 C.ar    1  UNL1        0.0200
     17 C          62.7003   85.2217    8.5875 C.ar    1  UNL1        0.1019
     18 N          61.4546   85.8916    8.0879 N.ar    1  UNL1       -0.2076
     19 C          60.5512   86.6072    9.0479 C.ar    1  UNL1        0.2598
     20 C          60.8934   86.6530   10.5076 C.ar    1  UNL1        0.1879
     21 O          59.3056   87.2770    8.5483 O.3     1  UNL1       -0.4541
     22 C          59.4030   88.3968    7.5550 C.3     1  UNL1        0.2543
     23 O          59.9901   87.3686   11.4677 O.3     1  UNL1       -0.4670
     24 C          59.9239   88.8672   11.4602 C.3     1  UNL1        0.2527
     25 C          62.0773   84.8998   13.3679 C.3     1  UNL1        0.1159
     26 O          61.1671   85.8251   14.1196 O.3     1  UNL1       -0.3820
     27 H          61.5886   86.6946   14.2049 H       1  UNL1        0.2107
     28 C          62.9876   83.9744   12.6162 C.ar    1  UNL1        0.0021
     29 C          64.4751   84.1102   12.7537 C.ar    1  UNL1       -0.0020
     30 C          65.3853   83.1847   12.0019 C.ar    1  UNL1       -0.0006
     31 C          64.8081   82.1236   11.1127 C.ar    1  UNL1       -0.0043
     32 C          63.3206   81.9879   10.9752 C.ar    1  UNL1       -0.0221
     33 C          62.7433   80.9267   10.0859 C.3     1  UNL1        0.0310
     34 C          62.4103   82.9132   11.7269 C.ar    1  UNL1       -0.0063
     35 C          61.6733   83.7706   14.2687 C.3     1  UNL1        0.0491
     36 C          62.6823   82.7379   14.6756 C.3     1  UNL1        0.0750
     37 N          62.4444   81.2911   14.3585 N.3     1  UNL1       -0.2702
     38 C          63.6079   80.3621   14.1761 C.3     1  UNL1        0.0897
     39 C          61.0430   80.7734   14.2239 C.3     1  UNL1        0.0897
@<TRIPOS>BOND
     1    13    14    1
     2    14     2    1
     3     2     3   ar
     4     3     4   ar
     5     4     5   ar
     6     5     6   ar
     7     6     7   ar
     8     7     8    1
     9     7     9   ar
    10     9    10   ar
    11    10    11   ar
    12    11    12   ar
    13     1    12    1
    14     1    15    1
    15    15    16   ar
    16    16    17   ar
    17    17    18   ar
    18    18    19   ar
    19    19    21    1
    20    21    22    1
    21    19    20   ar
    22    20    23    1
    23    23    24    1
    24     1    25    1
    25    25    26    1
    26    25    35    1
    27    35    36    1
    28    36    37    1
    29    37    38    1
    30    37    39    1
    31    25    28    1
    32    28    29   ar
    33    29    30   ar
    34    30    31   ar
    35    31    32   ar
    36    32    33    1
    37    32    34   ar
    38    12     2   ar
    39    20    15   ar
    40    34    28   ar
    41    10     4   ar
    42    26    27    1
@<TRIPOS>MOLECULE
*****
 39 42 0 0 0
SMALL
GASTEIGER

@<TRIPOS>ATOM
      1 C          63.0429   89.4962   12.9121 C.3     1  UNL1        0.0808
      2 C          60.7180   88.8442   11.9529 C.ar    1  UNL1        0.2211
      3 N          59.8898   88.1052   10.9440 N.ar    1  UNL1       -0.2119
      4 C          60.5582   87.2792    9.8853 C.ar    1  UNL1        0.0844
      5 C          59.7300   86.5402    8.8764 C.ar    1  UNL1        0.0197
      6 C          60.3984   85.7142    7.8176 C.ar    1  UNL1        0.0082
      7 C          61.8950   85.6271    7.7678 C.ar    1  UNL1        0.0347
      8 BR         62.5634   84.8011    6.7091 Br      1  UNL1       -0.0490
      9 C          62.7233   86.3661    8.7768 C.ar    1  UNL1        0.0082
     10 C          62.0549   87.1922    9.8355 C.ar    1  UNL1        0.0181
     11 C          62.8831   87.9312   10.8444 C.ar    1  UNL1        0.0023
     12 C          62.2147   88.7572   11.9031 C.ar    1  UNL1        0.0375
     13 C          58.7020   89.2706   13.5353 C.3     1  UNL1        0.2542
     14 O          60.0496   89.6703   13.0117 O.3     1  UNL1       -0.4563
     15 C          63.9996   90.5604   12.4623 C.ar    1  UNL1        0.0245
     16 C          63.9812   91.0323   11.0385 C.ar    1  UNL1        0.0200
     17 C          64.9378   92.0965   10.5887 C.ar    1  UNL1        0.1019
     18 N          65.9128   92.6889   11.5627 N.ar    1  UNL1       -0.2076
     19 C          65.9311   92.2170   12.9864 C.ar    1  UNL1        0.2598
     20 C          64.9745   91.1528   13.4362 C.ar    1  UNL1        0.1879
     21 O          66.9061   92.8093   13.9603 O.3     1  UNL1       -0.4541
     22 C          68.1927   92.0987   14.2596 C.3     1  UNL1        0.2543
     23 O          64.9929   90.6809   14.8599 O.3     1  UNL1       -0.4670
     24 C          64.9132   91.6748   15.9805 C.3     1  UNL1        0.2527
     25 C          62.9146   89.1710   14.3707 C.3     1  UNL1        0.1159
     26 O          62.3030   90.5182   14.6173 O.3     1  UNL1       -0.3820
     27 H          62.7489   91.1812   14.0672 H       1  UNL1        0.2107
     28 C          63.5261   87.8237   14.1241 C.ar    1  UNL1        0.0021
     29 C          64.8206   87.4551   14.7862 C.ar    1  UNL1       -0.0020
     30 C          65.4322   86.1077   14.5396 C.ar    1  UNL1       -0.0006
     31 C          64.7492   85.1291   13.6309 C.ar    1  UNL1       -0.0043
     32 C          63.4547   85.4977   12.9688 C.ar    1  UNL1       -0.0221
     33 C          62.7717   84.5189   12.0601 C.3     1  UNL1        0.0310
     34 C          62.8432   86.8450   13.2154 C.ar    1  UNL1       -0.0063
     35 C          62.7862   88.8457   15.8294 C.3     1  UNL1        0.0491
     36 C          61.7909   87.8199   16.2843 C.3     1  UNL1        0.0750
     37 N          62.2447   86.6430   17.0963 N.3     1  UNL1       -0.2702
     38 C          62.2469   85.2705   16.4912 C.3     1  UNL1        0.0897
     39 C          62.6963   86.8388   18.5132 C.3     1  UNL1        0.0897
@<TRIPOS>BOND
     1    13    14    1
     2    14     2    1
     3     2     3   ar
     4     3     4   ar
     5     4     5   ar
     6     5     6   ar
     7     6     7   ar
     8     7     8    1
     9     7     9   ar
    10     9    10   ar
    11    10    11   ar
    12    11    12   ar
    13     1    12    1
    14     1    15    1
    15    15    16   ar
    16    16    17   ar
    17    17    18   ar
    18    18    19   ar
    19    19    21    1
    20    21    22    1
    21    19    20   ar
    22    20    23    1
    23    23    24    1
    24     1    25    1
    25    25    26    1
    26    25    35    1
    27    35    36    1
    28    36    37    1
    29    37    38    1
    30    37    39    1
    31    25    28    1
    32    28    29   ar
    33    29    30   ar
    34    30    31   ar
    35    31    32   ar
    36    32    33    1
    37    32    34   ar
    38    12     2   ar
    39    20    15   ar
    40    34    28   ar
    41    10     4   ar
    42    26    27    1
@<TRIPOS>MOLECULE
*****
 39 42 0 0 0
SMALL
GASTEIGER

@<TRIPOS>ATOM
      1 C          63.4090   89.4598   13.4874 C.3     1  UNL1        0.0808
      2 C          61.0428   89.0458   12.4974 C.ar    1  UNL1        0.2211
      3 N          60.1608   88.4205   11.4576 N.ar    1  UNL1       -0.2119
      4 C          60.7631   87.5838   10.3681 C.ar    1  UNL1        0.0844
      5 C          59.8812   86.9584    9.3283 C.ar    1  UNL1        0.0197
      6 C          60.4834   86.1217    8.2387 C.ar    1  UNL1        0.0082
      7 C          61.9676   85.9103    8.1889 C.ar    1  UNL1        0.0347
      8 BR         62.5698   85.0735    7.0994 Br      1  UNL1       -0.0490
      9 C          62.8496   86.5356    9.2287 C.ar    1  UNL1        0.0082
     10 C          62.2473   87.3724   10.3183 C.ar    1  UNL1        0.0181
     11 C          63.1292   87.9977   11.3581 C.ar    1  UNL1        0.0023
     12 C          62.5270   88.8344   12.4476 C.ar    1  UNL1        0.0375
     13 C          59.3488   89.3199   14.4482 C.3     1  UNL1        0.2542
     14 O          60.4406   89.8826   13.5870 O.3     1  UNL1       -0.4563
     15 C          64.4333   90.4798   13.0870 C.ar    1  UNL1        0.0245
     16 C          65.7328   90.5698   13.8310 C.ar    1  UNL1        0.0200
     17 C          66.7571   91.5898   13.4306 C.ar    1  UNL1        0.1019
     18 N          66.4819   92.5199   12.2863 N.ar    1  UNL1       -0.2076
     19 C          65.1825   92.4299   11.5424 C.ar    1  UNL1        0.2598
     20 C          64.1582   91.4098   11.9428 C.ar    1  UNL1        0.1879
     21 O          64.9074   93.3599   10.3982 O.3     1  UNL1       -0.4541
     22 C          65.5677   94.7059   10.3503 C.3     1  UNL1        0.2543
     23 O          62.8588   91.3198   11.1990 O.3     1  UNL1       -0.4670
     24 C          62.8572   91.0787    9.7184 C.3     1  UNL1        0.2527
     25 C          63.2666   89.0651   14.9275 C.3     1  UNL1        0.1159
     26 O          62.7287   90.4281   15.2479 O.3     1  UNL1       -0.3820
     27 H          63.2082   91.0946   14.7314 H       1  UNL1        0.2107
     28 C          63.8046   87.7020   14.6071 C.ar    1  UNL1        0.0021
     29 C          65.1336   87.2726   15.1540 C.ar    1  UNL1       -0.0020
     30 C          65.6716   85.9095   14.8336 C.ar    1  UNL1       -0.0006
     31 C          64.8804   84.9759   13.9662 C.ar    1  UNL1       -0.0043
     32 C          63.5513   85.4053   13.4193 C.ar    1  UNL1       -0.0221
     33 C          62.7601   84.4715   12.5520 C.3     1  UNL1        0.0310
     34 C          63.0134   86.7683   13.7397 C.ar    1  UNL1       -0.0063
     35 C          63.1243   88.6704   16.3676 C.3     1  UNL1        0.0491
     36 C          62.0228   87.7419   16.7854 C.3     1  UNL1        0.0750
     37 N          62.3452   86.4909   17.5479 N.3     1  UNL1       -0.2702
     38 C          62.7303   86.5730   18.9953 C.3     1  UNL1        0.0897
     39 C          62.2824   85.1579   16.8629 C.3     1  UNL1        0.0897
@<TRIPOS>BOND
     1    13    14    1
     2    14     2    1
     3     2     3   ar
     4     3     4   ar
     5     4     5   ar
     6     5     6   ar
     7     6     7   ar
     8     7     8    1
     9     7     9   ar
    10     9    10   ar
    11    10    11   ar
    12    11    12   ar
    13     1    12    1
    14     1    15    1
    15    15    16   ar
    16    16    17   ar
    17    17    18   ar
    18    18    19   ar
    19    19    21    1
    20    21    22    1
    21    19    20   ar
    22    20    23    1
    23    23    24    1
    24     1    25    1
    25    25    26    1
    26    25    35    1
    27    35    36    1
    28    36    37    1
    29    37    38    1
    30    37    39    1
    31    25    28    1
    32    28    29   ar
    33    29    30   ar
    34    30    31   ar
    35    31    32   ar
    36    32    33    1
    37    32    34   ar
    38    12     2   ar
    39    20    15   ar
    40    34    28   ar
    41    10     4   ar
    42    26    27    1
@<TRIPOS>MOLECULE
*****
 39 42 0 0 0
SMALL
GASTEIGER

@<TRIPOS>ATOM
      1 C          61.7377   87.5509    9.9866 C.3     1  UNL1        0.0808
      2 C          62.9587   85.3815    9.2430 C.ar    1  UNL1        0.2211
      3 N          63.4670   84.0050    9.5545 N.ar    1  UNL1       -0.2119
      4 C          63.2627   83.4216   10.9212 C.ar    1  UNL1        0.0844
      5 C          63.7710   82.0452   11.2327 C.ar    1  UNL1        0.0197
      6 C          63.5667   81.4617   12.5994 C.ar    1  UNL1        0.0082
      7 C          62.8541   82.2547   13.6546 C.ar    1  UNL1        0.0347
      8 BR         62.6498   81.6712   15.0213 Br      1  UNL1       -0.0490
      9 C          62.3458   83.6311   13.3431 C.ar    1  UNL1        0.0082
     10 C          62.5501   84.2146   11.9764 C.ar    1  UNL1        0.0181
     11 C          62.0418   85.5910   11.6648 C.ar    1  UNL1        0.0023
     12 C          62.2461   86.1744   10.2981 C.ar    1  UNL1        0.0375
     13 C          62.9392   85.1185    6.6583 C.3     1  UNL1        0.2542
     14 O          63.1630   85.9650    7.8763 O.3     1  UNL1       -0.4563
     15 C          62.4765   88.7551   10.4906 C.ar    1  UNL1        0.0245
     16 C          62.6645   89.9470    9.5993 C.ar    1  UNL1        0.0200
     17 C          63.4034   91.1512   10.1032 C.ar    1  UNL1        0.1019
     18 N          63.9542   91.1636   11.4984 N.ar    1  UNL1       -0.2076
     19 C          63.7662   89.9718   12.3896 C.ar    1  UNL1        0.2598
     20 C          63.0274   88.7676   11.8857 C.ar    1  UNL1        0.1879
     21 O          64.3170   89.9842   13.7847 O.3     1  UNL1       -0.4541
     22 C          65.3524   90.9977   14.1733 C.3     1  UNL1        0.2543
     23 O          62.8393   87.5758   12.7768 O.3     1  UNL1       -0.4670
     24 C          63.9083   87.1975   13.7589 C.3     1  UNL1        0.2527
     25 C          60.4906   87.7231    9.1712 C.3     1  UNL1        0.1159
     26 O          61.0423   86.7937    8.1311 O.3     1  UNL1       -0.3820
     27 H          61.9937   86.9521    8.0280 H       1  UNL1        0.2107
     28 C          59.9389   88.6525   10.2113 C.ar    1  UNL1        0.0021
     29 C          59.9048   90.1300    9.9546 C.ar    1  UNL1       -0.0020
     30 C          59.3530   91.0594   10.9947 C.ar    1  UNL1       -0.0006
     31 C          58.8354   90.5113   12.2915 C.ar    1  UNL1       -0.0043
     32 C          58.8695   89.0338   12.5482 C.ar    1  UNL1       -0.0221
     33 C          58.3518   88.4857   13.8450 C.3     1  UNL1        0.0310
     34 C          59.4212   88.1044   11.5081 C.ar    1  UNL1       -0.0063
     35 C          59.2434   87.8953    8.3558 C.3     1  UNL1        0.0491
     36 C          59.3401   88.1231    6.8763 C.3     1  UNL1        0.0750
     37 N          59.1045   89.4926    6.3114 N.3     1  UNL1       -0.2702
     38 C          60.2642   90.3198    5.8416 C.3     1  UNL1        0.0897
     39 C          57.7092   90.0348    6.2163 C.3     1  UNL1        0.0897
@<TRIPOS>BOND
     1    13    14    1
     2    14     2    1
     3     2     3   ar
     4     3     4   ar
     5     4     5   ar
     6     5     6   ar
     7     6     7   ar
     8     7     8    1
     9     7     9   ar
    10     9    10   ar
    11    10    11   ar
    12    11    12   ar
    13     1    12    1
    14     1    15    1
    15    15    16   ar
    16    16    17   ar
    17    17    18   ar
    18    18    19   ar
    19    19    21    1
    20    21    22    1
    21    19    20   ar
    22    20    23    1
    23    23    24    1
    24     1    25    1
    25    25    26    1
    26    25    35    1
    27    35    36    1
    28    36    37    1
    29    37    38    1
    30    37    39    1
    31    25    28    1
    32    28    29   ar
    33    29    30   ar
    34    30    31   ar
    35    31    32   ar
    36    32    33    1
    37    32    34   ar
    38    12     2   ar
    39    20    15   ar
    40    34    28   ar
    41    10     4   ar
    42    26    27    1
@<TRIPOS>MOLECULE
*****
 39 42 0 0 0
SMALL
GASTEIGER

@<TRIPOS>ATOM
      1 C          62.8231   88.3332   12.6253 C.3     1  UNL1        0.0808
      2 C          63.4683   90.4528   11.2686 C.ar    1  UNL1        0.2211
      3 N          64.2399   91.7336   11.1488 N.ar    1  UNL1       -0.2119
      4 C          65.1377   92.1756   12.2662 C.ar    1  UNL1        0.0844
      5 C          65.9092   93.4563   12.1466 C.ar    1  UNL1        0.0197
      6 C          66.8070   93.8983   13.2640 C.ar    1  UNL1        0.0082
      7 C          66.9333   93.0595   14.5011 C.ar    1  UNL1        0.0347
      8 BR         67.8312   93.5014   15.6185 Br      1  UNL1       -0.0490
      9 C          66.1618   91.7786   14.6208 C.ar    1  UNL1        0.0082
     10 C          65.2640   91.3367   13.5034 C.ar    1  UNL1        0.0181
     11 C          64.4924   90.0559   13.6230 C.ar    1  UNL1        0.0023
     12 C          63.5946   89.6140   12.5056 C.ar    1  UNL1        0.0375
     13 C          62.2414   90.9570    9.0345 C.3     1  UNL1        0.2542
     14 O          62.5705   90.0109   10.1512 O.3     1  UNL1       -0.4563
     15 C          63.3597   87.2098   13.4621 C.ar    1  UNL1        0.0245
     16 C          64.0422   86.0460   12.8064 C.ar    1  UNL1        0.0200
     17 C          64.5788   84.9226   13.6431 C.ar    1  UNL1        0.1019
     18 N          64.4329   84.9631   15.1355 N.ar    1  UNL1       -0.2076
     19 C          63.7504   86.1268   15.7911 C.ar    1  UNL1        0.2598
     20 C          63.2138   87.2502   14.9544 C.ar    1  UNL1        0.1879
     21 O          63.6046   86.1672   17.2834 O.3     1  UNL1       -0.4541
     22 C          62.2388   86.1861   17.9033 C.3     1  UNL1        0.2543
     23 O          62.5314   88.4140   15.6100 O.3     1  UNL1       -0.4670
     24 C          63.2954   89.2997   16.5491 C.3     1  UNL1        0.2527
     25 C          61.5150   88.1757   11.9084 C.3     1  UNL1        0.1159
     26 O          60.9558   89.3385   12.6733 O.3     1  UNL1       -0.3820
     27 H          61.2803   89.3107   13.5869 H       1  UNL1        0.2107
     28 C          62.0742   87.0129   11.1435 C.ar    1  UNL1        0.0021
     29 C          62.7565   87.2395    9.8270 C.ar    1  UNL1       -0.0020
     30 C          63.3157   86.0766    9.0621 C.ar    1  UNL1       -0.0006
     31 C          63.1926   84.6872    9.6137 C.ar    1  UNL1       -0.0043
     32 C          62.5102   84.4606   10.9301 C.ar    1  UNL1       -0.0221
     33 C          62.3871   83.0710   11.4817 C.3     1  UNL1        0.0310
     34 C          61.9511   85.6234   11.6950 C.ar    1  UNL1       -0.0063
     35 C          60.2069   88.0183   11.1914 C.3     1  UNL1        0.0491
     36 C          59.8875   88.8905   10.0135 C.3     1  UNL1        0.0750
     37 N          59.6104   88.2717    8.6754 N.3     1  UNL1       -0.2702
     38 C          59.5381   89.1347    7.4506 C.3     1  UNL1        0.0897
     39 C          59.4055   86.7902    8.5622 C.3     1  UNL1        0.0897
@<TRIPOS>BOND
     1    13    14    1
     2    14     2    1
     3     2     3   ar
     4     3     4   ar
     5     4     5   ar
     6     5     6   ar
     7     6     7   ar
     8     7     8    1
     9     7     9   ar
    10     9    10   ar
    11    10    11   ar
    12    11    12   ar
    13     1    12    1
    14     1    15    1
    15    15    16   ar
    16    16    17   ar
    17    17    18   ar
    18    18    19   ar
    19    19    21    1
    20    21    22    1
    21    19    20   ar
    22    20    23    1
    23    23    24    1
    24     1    25    1
    25    25    26    1
    26    25    35    1
    27    35    36    1
    28    36    37    1
    29    37    38    1
    30    37    39    1
    31    25    28    1
    32    28    29   ar
    33    29    30   ar
    34    30    31   ar
    35    31    32   ar
    36    32    33    1
    37    32    34   ar
    38    12     2   ar
    39    20    15   ar
    40    34    28   ar
    41    10     4   ar
    42    26    27    1
@<TRIPOS>MOLECULE
*****
 39 42 0 0 0
SMALL
GASTEIGER

@<TRIPOS>ATOM
      1 C          62.9038   88.6988   11.3960 C.3     1  UNL1        0.0808
      2 C          63.5058   90.4347   13.2329 C.ar    1  UNL1        0.2211
      3 N          64.1960   91.7001   13.6483 N.ar    1  UNL1       -0.2119
      4 C          64.9746   92.4948   12.6422 C.ar    1  UNL1        0.0844
      5 C          65.6649   93.7600   13.0575 C.ar    1  UNL1        0.0197
      6 C          66.4435   94.5547   12.0514 C.ar    1  UNL1        0.0082
      7 C          66.5318   94.0841   10.6299 C.ar    1  UNL1        0.0347
      8 BR         67.3104   94.8787    9.6238 Br      1  UNL1       -0.0490
      9 C          65.8415   92.8187   10.2145 C.ar    1  UNL1        0.0082
     10 C          65.0629   92.0241   11.2207 C.ar    1  UNL1        0.0181
     11 C          64.3727   90.7588   10.8053 C.ar    1  UNL1        0.0023
     12 C          63.5941   89.9641   11.8115 C.ar    1  UNL1        0.0375
     13 C          63.0377   89.7709   15.7008 C.3     1  UNL1        0.2542
     14 O          62.7272   89.6401   14.2391 O.3     1  UNL1       -0.4563
     15 C          63.0645   87.4529   12.2158 C.ar    1  UNL1        0.0245
     16 C          63.7130   87.5224   13.5667 C.ar    1  UNL1        0.0200
     17 C          63.8737   86.2765   14.3864 C.ar    1  UNL1        0.1019
     18 N          63.3860   84.9611   13.8553 N.ar    1  UNL1       -0.2076
     19 C          62.7376   84.8917   12.5045 C.ar    1  UNL1        0.2598
     20 C          62.5769   86.1376   11.6847 C.ar    1  UNL1        0.1879
     21 O          62.2499   83.5764   11.9734 O.3     1  UNL1       -0.4541
     22 C          63.0010   82.3163   12.2864 C.3     1  UNL1        0.2543
     23 O          61.9284   86.0681   10.3339 O.3     1  UNL1       -0.4670
     24 C          62.5259   85.2100    9.2584 C.3     1  UNL1        0.2527
     25 C          62.0529   88.6793   10.1610 C.3     1  UNL1        0.1159
     26 O          63.1819   88.0585    9.3929 O.3     1  UNL1       -0.3820
     27 H          64.0216   88.4509    9.6787 H       1  UNL1        0.2107
     28 C          60.9239   89.3002   10.9290 C.ar    1  UNL1        0.0021
     29 C          60.5749   90.7431   10.7144 C.ar    1  UNL1       -0.0020
     30 C          59.4459   91.3639   11.4826 C.ar    1  UNL1       -0.0006
     31 C          58.6659   90.5418   12.4652 C.ar    1  UNL1       -0.0043
     32 C          59.0149   89.0988   12.6798 C.ar    1  UNL1       -0.0221
     33 C          58.2349   88.2766   13.6625 C.3     1  UNL1        0.0310
     34 C          60.1439   88.4780   11.9117 C.ar    1  UNL1       -0.0063
     35 C          61.2020   88.6599    8.9259 C.3     1  UNL1        0.0491
     36 C          59.8433   88.0253    8.9611 C.3     1  UNL1        0.0750
     37 N          59.1395   87.6882    7.6800 N.3     1  UNL1       -0.2702
     38 C          58.7336   88.7819    6.7370 C.3     1  UNL1        0.0897
     39 C          58.8417   86.2575    7.3418 C.3     1  UNL1        0.0897
@<TRIPOS>BOND
     1    13    14    1
     2    14     2    1
     3     2     3   ar
     4     3     4   ar
     5     4     5   ar
     6     5     6   ar
     7     6     7   ar
     8     7     8    1
     9     7     9   ar
    10     9    10   ar
    11    10    11   ar
    12    11    12   ar
    13     1    12    1
    14     1    15    1
    15    15    16   ar
    16    16    17   ar
    17    17    18   ar
    18    18    19   ar
    19    19    21    1
    20    21    22    1
    21    19    20   ar
    22    20    23    1
    23    23    24    1
    24     1    25    1
    25    25    26    1
    26    25    35    1
    27    35    36    1
    28    36    37    1
    29    37    38    1
    30    37    39    1
    31    25    28    1
    32    28    29   ar
    33    29    30   ar
    34    30    31   ar
    35    31    32   ar
    36    32    33    1
    37    32    34   ar
    38    12     2   ar
    39    20    15   ar
    40    34    28   ar
    41    10     4   ar
    42    26    27    1
