@<TRIPOS>MOLECULE
*****
 28 30 0 0 0
SMALL
GASTEIGER

@<TRIPOS>ATOM
      1 C          65.1971   91.2521   13.2900 C.2     1  UNL1        0.0708
      2 C          65.4795   92.0235   12.0350 C.2     1  UNL1        0.0283
      3 C          66.6734   92.9287   11.9636 C.3     1  UNL1        0.0470
      4 N          64.5680   91.8896   10.8512 N.pl3   1  UNL1       -0.3192
      5 C          63.3741   90.9843   10.9226 C.2     1  UNL1        0.0283
      6 C          62.4626   90.8504    9.7389 C.3     1  UNL1        0.0470
      7 C          63.0917   90.2129   12.1777 C.2     1  UNL1        0.0707
      8 C          64.0032   90.3468   13.3614 C.3     1  UNL1        0.0828
      9 H          64.7533   92.3959   10.0274 H       1  UNL1        0.1516
     10 C          63.7208   89.5754   14.6165 C.ar    1  UNL1        0.0087
     11 C          63.3143   90.2989   15.8660 C.ar    1  UNL1       -0.0019
     12 C          63.0319   89.5276   17.1210 C.ar    1  UNL1        0.0015
     13 C          63.1561   88.0327   17.1267 C.ar    1  UNL1        0.0241
     14 C          63.5627   87.3093   15.8772 C.ar    1  UNL1        0.1429
     15 N          63.7668   85.8528   15.5821 N.ar    1  UNL1       -0.0483
     16 O          64.1754   85.7241   14.1446 O.2     1  UNL1       -0.2415
     17 N          64.2237   87.1009   13.5512 N.ar    1  UNL1       -0.0486
     18 C          63.8450   88.0806   14.6221 C.ar    1  UNL1        0.1398
     19 C          66.1086   91.3860   14.4738 C.2     1  UNL1        0.3388
     20 O          66.7594   90.8874   14.8087 O.2     1  UNL1       -0.2452
     21 C          67.2334   93.1748   15.9855 C.3     1  UNL1        0.2559
     22 O          65.9993   92.5817   15.3730 O.3     1  UNL1       -0.4415
     23 C          61.8978   89.3076   12.2491 C.2     1  UNL1        0.3386
     24 O          60.6130   89.8060   12.8411 O.2     1  UNL1       -0.2452
     25 O          61.9889   87.9038   11.7283 O.3     1  UNL1       -0.4494
     26 C          61.3973   87.5591   10.3937 C.3     1  UNL1        0.1694
     27 C          59.9751   87.9239   10.0870 C.3     1  UNL1        0.0473
     28 C          62.2280   86.8496    9.3658 C.3     1  UNL1        0.0473
@<TRIPOS>BOND
     1    21    22    1
     2    22    19    1
     3    19    20    2
     4    19     1    1
     5     1     2    2
     6     2     3    1
     7     2     4    1
     8     4     5    1
     9     5     6    1
    10     5     7    2
    11     7    23    1
    12    23    24    2
    13    23    25    1
    14    25    26    1
    15    26    27    1
    16    26    28    1
    17     7     8    1
    18     8    10    1
    19    10    11   ar
    20    11    12   ar
    21    12    13   ar
    22    13    14   ar
    23    14    15   ar
    24    15    16   ar
    25    16    17   ar
    26    17    18   ar
    27     8     1    1
    28    18    10   ar
    29    18    14   ar
    30     4     9    1
@<TRIPOS>MOLECULE
*****
 28 30 0 0 0
SMALL
GASTEIGER

@<TRIPOS>ATOM
      1 C          62.7306   87.8785   11.2460 C.2     1  UNL1        0.0708
      2 C          63.1848   88.3040   12.6107 C.2     1  UNL1        0.0283
      3 C          63.1935   89.7581   12.9789 C.3     1  UNL1        0.0470
      4 N          63.6304   87.2754   13.6075 N.pl3   1  UNL1       -0.3192
      5 C          63.6218   85.8213   13.2394 C.2     1  UNL1        0.0283
      6 C          64.0674   84.7926   14.2360 C.3     1  UNL1        0.0470
      7 C          63.1676   85.3957   11.8745 C.2     1  UNL1        0.0707
      8 C          62.7220   86.4244   10.8779 C.3     1  UNL1        0.0828
      9 H          63.9286   87.5546   14.5033 H       1  UNL1        0.1516
     10 C          62.2678   85.9989    9.5131 C.ar    1  UNL1        0.0087
     11 C          63.2118   85.2733    8.6008 C.ar    1  UNL1       -0.0019
     12 C          62.7576   84.8479    7.2361 C.ar    1  UNL1        0.0015
     13 C          61.3593   85.1480    6.7835 C.ar    1  UNL1        0.0241
     14 C          60.4153   85.8736    7.6958 C.ar    1  UNL1        0.1429
     15 N          58.9888   86.3054    7.5264 N.ar    1  UNL1       -0.0483
     16 O          58.5614   86.9977    8.7866 O.2     1  UNL1       -0.2415
     17 N          59.7237   86.9938    9.7347 N.ar    1  UNL1       -0.0486
     18 C          60.8695   86.2991    9.0606 C.ar    1  UNL1        0.1398
     19 C          62.2850   88.9071   10.2493 C.2     1  UNL1        0.3388
     20 O          62.6961   89.3661    9.6131 O.2     1  UNL1       -0.2452
     21 C          60.3959   90.4909   11.0696 C.3     1  UNL1        0.2559
     22 O          60.8509   89.3457   10.2145 O.3     1  UNL1       -0.4415
     23 C          63.1589   83.9416   11.5064 C.2     1  UNL1        0.3386
     24 O          64.3033   83.3570   10.7328 O.2     1  UNL1       -0.2452
     25 O          62.0058   83.0722   11.9120 O.3     1  UNL1       -0.4494
     26 C          62.2399   81.8751   12.7850 C.3     1  UNL1        0.1694
     27 C          62.8015   80.6153   12.1956 C.3     1  UNL1        0.0473
     28 C          61.9124   81.9379   14.2475 C.3     1  UNL1        0.0473
@<TRIPOS>BOND
     1    21    22    1
     2    22    19    1
     3    19    20    2
     4    19     1    1
     5     1     2    2
     6     2     3    1
     7     2     4    1
     8     4     5    1
     9     5     6    1
    10     5     7    2
    11     7    23    1
    12    23    24    2
    13    23    25    1
    14    25    26    1
    15    26    27    1
    16    26    28    1
    17     7     8    1
    18     8    10    1
    19    10    11   ar
    20    11    12   ar
    21    12    13   ar
    22    13    14   ar
    23    14    15   ar
    24    15    16   ar
    25    16    17   ar
    26    17    18   ar
    27     8     1    1
    28    18    10   ar
    29    18    14   ar
    30     4     9    1
@<TRIPOS>MOLECULE
*****
 28 30 0 0 0
SMALL
GASTEIGER

@<TRIPOS>ATOM
      1 C          63.1149   90.2934   12.1439 C.2     1  UNL1        0.0708
      2 C          63.3816   91.0793   10.8946 C.2     1  UNL1        0.0283
      3 C          62.5476   90.8466    9.6697 C.3     1  UNL1        0.0470
      4 N          64.4823   92.0982   10.8699 N.pl3   1  UNL1       -0.3192
      5 C          65.3162   92.3309   12.0948 C.2     1  UNL1        0.0283
      6 C          66.4169   93.3497   12.0703 C.3     1  UNL1        0.0470
      7 C          65.0495   91.5450   13.3443 C.2     1  UNL1        0.0707
      8 C          63.9489   90.5262   13.3689 C.3     1  UNL1        0.0828
      9 H          64.6573   92.6140   10.0499 H       1  UNL1        0.1516
     10 C          63.6821   89.7402   14.6183 C.ar    1  UNL1        0.0087
     11 C          63.2517   90.4453   15.8704 C.ar    1  UNL1       -0.0019
     12 C          62.9850   89.6594   17.1198 C.ar    1  UNL1        0.0015
     13 C          63.1486   88.1683   17.1172 C.ar    1  UNL1        0.0241
     14 C          63.5790   87.4632   15.8652 C.ar    1  UNL1        0.1429
     15 N          63.8228   86.0145   15.5624 N.ar    1  UNL1       -0.0483
     16 O          64.2401   85.9051   14.1258 O.2     1  UNL1       -0.2415
     17 N          64.2544   87.2862   13.5407 N.ar    1  UNL1       -0.0486
     18 C          63.8458   88.2492   14.6157 C.ar    1  UNL1        0.1398
     19 C          62.0142   89.2746   12.1686 C.2     1  UNL1        0.3388
     20 O          61.9462   88.4355   11.8937 O.2     1  UNL1       -0.2452
     21 C          59.5443   90.0234   11.8698 C.3     1  UNL1        0.2559
     22 O          60.6818   89.6243   12.7624 O.3     1  UNL1       -0.4415
     23 C          65.8835   91.7778   14.5692 C.2     1  UNL1        0.3386
     24 O          65.3748   92.6666   15.6651 O.2     1  UNL1       -0.2452
     25 O          67.2262   91.1216   14.6981 O.3     1  UNL1       -0.4494
     26 C          68.4718   91.9574   14.7051 C.3     1  UNL1        0.1694
     27 C          69.4211   91.8983   13.5453 C.3     1  UNL1        0.0473
     28 C          68.7679   92.8523   15.8720 C.3     1  UNL1        0.0473
@<TRIPOS>BOND
     1    21    22    1
     2    22    19    1
     3    19    20    2
     4    19     1    1
     5     1     2    2
     6     2     3    1
     7     2     4    1
     8     4     5    1
     9     5     6    1
    10     5     7    2
    11     7    23    1
    12    23    24    2
    13    23    25    1
    14    25    26    1
    15    26    27    1
    16    26    28    1
    17     7     8    1
    18     8    10    1
    19    10    11   ar
    20    11    12   ar
    21    12    13   ar
    22    13    14   ar
    23    14    15   ar
    24    15    16   ar
    25    16    17   ar
    26    17    18   ar
    27     8     1    1
    28    18    10   ar
    29    18    14   ar
    30     4     9    1
@<TRIPOS>MOLECULE
*****
 28 30 0 0 0
SMALL
GASTEIGER

@<TRIPOS>ATOM
      1 C          62.4500   86.8466   11.4115 C.2     1  UNL1        0.0708
      2 C          62.5684   88.3236   11.1788 C.2     1  UNL1        0.0283
      3 C          61.9885   88.9363    9.9385 C.3     1  UNL1        0.0470
      4 N          63.2669   89.1880   12.1863 N.pl3   1  UNL1       -0.3192
      5 C          63.8468   88.5753   13.4265 C.2     1  UNL1        0.0283
      6 C          64.5452   89.4396   14.4341 C.3     1  UNL1        0.0470
      7 C          63.7284   87.0982   13.6594 C.2     1  UNL1        0.0707
      8 C          63.0300   86.2338   12.6518 C.3     1  UNL1        0.0828
      9 H          63.3446   90.1575   12.0335 H       1  UNL1        0.1516
     10 C          62.9115   84.7567   12.8846 C.ar    1  UNL1        0.0087
     11 C          62.0908   84.2413   14.0294 C.ar    1  UNL1       -0.0019
     12 C          61.9723   82.7643   14.2622 C.ar    1  UNL1        0.0015
     13 C          62.6745   81.8025   13.3500 C.ar    1  UNL1        0.0241
     14 C          63.4952   82.3179   12.2051 C.ar    1  UNL1        0.1429
     15 N          64.2949   81.6164   11.1476 N.ar    1  UNL1       -0.0483
     16 O          64.9075   82.6599   10.2612 O.2     1  UNL1       -0.2415
     17 N          64.4866   84.0064   10.7710 N.ar    1  UNL1       -0.0486
     18 C          63.6137   83.7950   11.9724 C.ar    1  UNL1        0.1398
     19 C          61.7516   85.9821   10.4041 C.2     1  UNL1        0.3388
     20 O          60.9848   85.5389   10.3998 O.2     1  UNL1       -0.2452
     21 C          61.5355   85.7218    7.8281 C.3     1  UNL1        0.2559
     22 O          62.3820   85.7306    9.0663 O.3     1  UNL1       -0.4415
     23 C          64.3083   86.4854   14.8996 C.2     1  UNL1        0.3386
     24 O          65.7902   86.2838   15.0141 O.2     1  UNL1       -0.2452
     25 O          63.4061   86.0743   16.0253 O.3     1  UNL1       -0.4494
     26 C          63.0672   87.0529   17.1104 C.3     1  UNL1        0.1694
     27 C          62.6920   86.5584   18.4759 C.3     1  UNL1        0.0473
     28 C          63.1035   88.5260   16.8299 C.3     1  UNL1        0.0473
@<TRIPOS>BOND
     1    21    22    1
     2    22    19    1
     3    19    20    2
     4    19     1    1
     5     1     2    2
     6     2     3    1
     7     2     4    1
     8     4     5    1
     9     5     6    1
    10     5     7    2
    11     7    23    1
    12    23    24    2
    13    23    25    1
    14    25    26    1
    15    26    27    1
    16    26    28    1
    17     7     8    1
    18     8    10    1
    19    10    11   ar
    20    11    12   ar
    21    12    13   ar
    22    13    14   ar
    23    14    15   ar
    24    15    16   ar
    25    16    17   ar
    26    17    18   ar
    27     8     1    1
    28    18    10   ar
    29    18    14   ar
    30     4     9    1
@<TRIPOS>MOLECULE
*****
 28 30 0 0 0
SMALL
GASTEIGER

@<TRIPOS>ATOM
      1 C          63.8705   86.1631   13.4802 C.2     1  UNL1        0.0708
      2 C          63.8479   87.6342   13.7718 C.2     1  UNL1        0.0283
      3 C          64.4406   88.1551   15.0474 C.3     1  UNL1        0.0470
      4 N          63.2326   88.5846   12.7877 N.pl3   1  UNL1       -0.3192
      5 C          62.6400   88.0636   11.5120 C.2     1  UNL1        0.0283
      6 C          62.0247   89.0139   10.5279 C.3     1  UNL1        0.0470
      7 C          62.6626   86.5924   11.2203 C.2     1  UNL1        0.0707
      8 C          63.2778   85.6421   12.2044 C.3     1  UNL1        0.0828
      9 H          63.2178   89.5502   12.9791 H       1  UNL1        0.1516
     10 C          63.3004   84.1709   11.9128 C.ar    1  UNL1        0.0087
     11 C          64.0415   83.6550   10.7151 C.ar    1  UNL1       -0.0019
     12 C          64.0641   82.1839   10.4235 C.ar    1  UNL1        0.0015
     13 C          63.3456   81.2284   11.3296 C.ar    1  UNL1        0.0241
     14 C          62.6045   81.7443   12.5274 C.ar    1  UNL1        0.1429
     15 N          61.8101   81.0484   13.5925 N.ar    1  UNL1       -0.0483
     16 O          61.2965   82.0895   14.5424 O.2     1  UNL1       -0.2415
     17 N          61.7735   83.4289   14.0643 N.ar    1  UNL1       -0.0486
     18 C          62.5819   83.2156   12.8190 C.ar    1  UNL1        0.1398
     19 C          64.4857   85.2127   14.4642 C.2     1  UNL1        0.3388
     20 O          65.2810   84.8294   14.5347 O.2     1  UNL1       -0.2452
     21 C          63.2295   85.6909   16.6876 C.3     1  UNL1        0.2559
     22 O          63.6860   84.7241   15.6355 O.3     1  UNL1       -0.4415
     23 C          62.0699   86.0714    9.9446 C.2     1  UNL1        0.3386
     24 O          62.9655   85.5601    8.8555 O.2     1  UNL1       -0.2452
     25 O          60.5815   86.0618    9.7582 O.3     1  UNL1       -0.4494
     26 C          59.9843   86.5385    8.4675 C.3     1  UNL1        0.1694
     27 C          60.0534   85.6731    7.2443 C.3     1  UNL1        0.0473
     28 C          59.3180   87.8807    8.3999 C.3     1  UNL1        0.0473
@<TRIPOS>BOND
     1    21    22    1
     2    22    19    1
     3    19    20    2
     4    19     1    1
     5     1     2    2
     6     2     3    1
     7     2     4    1
     8     4     5    1
     9     5     6    1
    10     5     7    2
    11     7    23    1
    12    23    24    2
    13    23    25    1
    14    25    26    1
    15    26    27    1
    16    26    28    1
    17     7     8    1
    18     8    10    1
    19    10    11   ar
    20    11    12   ar
    21    12    13   ar
    22    13    14   ar
    23    14    15   ar
    24    15    16   ar
    25    16    17   ar
    26    17    18   ar
    27     8     1    1
    28    18    10   ar
    29    18    14   ar
    30     4     9    1
@<TRIPOS>MOLECULE
*****
 28 30 0 0 0
SMALL
GASTEIGER

@<TRIPOS>ATOM
      1 C          62.5729   86.1704   11.5409 C.2     1  UNL1        0.0708
      2 C          63.0679   84.9139   12.1936 C.2     1  UNL1        0.0283
      3 C          62.8340   83.5855   11.5374 C.3     1  UNL1        0.0470
      4 N          63.7969   84.9858   13.5027 N.pl3   1  UNL1       -0.3192
      5 C          64.0308   86.3142   14.1588 C.2     1  UNL1        0.0283
      6 C          64.7598   86.3861   15.4678 C.3     1  UNL1        0.0470
      7 C          63.5358   87.5708   13.5061 C.2     1  UNL1        0.0707
      8 C          62.8068   87.4989   12.1972 C.3     1  UNL1        0.0828
      9 H          64.1219   84.1611   13.9311 H       1  UNL1        0.1516
     10 C          62.3117   88.7554   11.5444 C.ar    1  UNL1        0.0087
     11 C          63.2264   89.5533   10.6632 C.ar    1  UNL1       -0.0019
     12 C          62.7313   90.8097   10.0104 C.ar    1  UNL1        0.0015
     13 C          61.3215   91.2684   10.2389 C.ar    1  UNL1        0.0241
     14 C          60.4068   90.4704   11.1201 C.ar    1  UNL1        0.1429
     15 N          58.9774   90.6724   11.5277 N.ar    1  UNL1       -0.0483
     16 O          58.5892   89.5407   12.4324 O.2     1  UNL1       -0.2415
     17 N          59.7785   88.6393   12.5840 N.ar    1  UNL1       -0.0486
     18 C          60.9019   89.2139   11.7729 C.ar    1  UNL1        0.1398
     19 C          61.8438   86.0986   10.2320 C.2     1  UNL1        0.3388
     20 O          60.9995   85.9576   10.0048 O.2     1  UNL1       -0.2452
     21 C          63.0263   85.0982    8.1460 C.3     1  UNL1        0.2559
     22 O          62.5915   86.2904    8.9457 O.3     1  UNL1       -0.4415
     23 C          63.7697   88.8992   14.1623 C.2     1  UNL1        0.3386
     24 O          62.6801   89.5384   14.9711 O.2     1  UNL1       -0.2452
     25 O          65.0933   89.5884   14.0097 O.3     1  UNL1       -0.4494
     26 C          65.1695   91.0855   14.0605 C.3     1  UNL1        0.1694
     27 C          64.9690   91.8896   12.8102 C.3     1  UNL1        0.0473
     28 C          65.4461   91.7787   15.3617 C.3     1  UNL1        0.0473
@<TRIPOS>BOND
     1    21    22    1
     2    22    19    1
     3    19    20    2
     4    19     1    1
     5     1     2    2
     6     2     3    1
     7     2     4    1
     8     4     5    1
     9     5     6    1
    10     5     7    2
    11     7    23    1
    12    23    24    2
    13    23    25    1
    14    25    26    1
    15    26    27    1
    16    26    28    1
    17     7     8    1
    18     8    10    1
    19    10    11   ar
    20    11    12   ar
    21    12    13   ar
    22    13    14   ar
    23    14    15   ar
    24    15    16   ar
    25    16    17   ar
    26    17    18   ar
    27     8     1    1
    28    18    10   ar
    29    18    14   ar
    30     4     9    1
@<TRIPOS>MOLECULE
*****
 28 30 0 0 0
SMALL
GASTEIGER

@<TRIPOS>ATOM
      1 C          64.4653   91.2012   12.0432 C.2     1  UNL1        0.0708
      2 C          64.3313   92.0404   10.8072 C.2     1  UNL1        0.0283
      3 C          65.2648   93.1918   10.5776 C.3     1  UNL1        0.0470
      4 N          63.2638   91.7281    9.8007 N.pl3   1  UNL1       -0.3192
      5 C          62.3303   90.5767   10.0303 C.2     1  UNL1        0.0283
      6 C          61.2628   90.2644    9.0239 C.3     1  UNL1        0.0470
      7 C          62.4642   89.7375   11.2664 C.2     1  UNL1        0.0707
      8 C          63.5317   90.0497   12.2728 C.3     1  UNL1        0.0828
      9 H          63.1758   92.2789    8.9894 H       1  UNL1        0.1516
     10 C          63.6657   89.2106   13.5089 C.ar    1  UNL1        0.0087
     11 C          63.9598   87.7444   13.3918 C.ar    1  UNL1       -0.0019
     12 C          64.0938   86.9053   14.6278 C.ar    1  UNL1        0.0015
     13 C          63.9337   87.5323   15.9811 C.ar    1  UNL1        0.0241
     14 C          63.6396   88.9985   16.0982 C.ar    1  UNL1        0.1429
     15 N          63.4316   89.8885   17.2875 N.ar    1  UNL1       -0.0483
     16 O          63.1690   91.2777   16.7865 O.2     1  UNL1       -0.2415
     17 N          63.2147   91.2463   15.2875 N.ar    1  UNL1       -0.0486
     18 C          63.5056   89.8376   14.8621 C.ar    1  UNL1        0.1398
     19 C          65.5327   91.5134   13.0497 C.2     1  UNL1        0.3388
     20 O          66.2415   91.0759   13.3508 O.2     1  UNL1       -0.2452
     21 C          66.4102   93.0336   14.9653 C.3     1  UNL1        0.2559
     22 O          65.5140   92.8230   13.7810 O.3     1  UNL1       -0.4415
     23 C          61.5307   88.5860   11.4961 C.2     1  UNL1        0.3386
     24 O          60.1985   88.8185   12.1448 O.2     1  UNL1       -0.2452
     25 O          61.9296   87.2021   11.0769 O.3     1  UNL1       -0.4494
     26 C          61.5479   86.6904    9.7195 C.3     1  UNL1        0.1694
     27 C          62.5720   86.0123    8.8584 C.3     1  UNL1        0.0473
     28 C          60.1422   86.8569    9.2231 C.3     1  UNL1        0.0473
@<TRIPOS>BOND
     1    21    22    1
     2    22    19    1
     3    19    20    2
     4    19     1    1
     5     1     2    2
     6     2     3    1
     7     2     4    1
     8     4     5    1
     9     5     6    1
    10     5     7    2
    11     7    23    1
    12    23    24    2
    13    23    25    1
    14    25    26    1
    15    26    27    1
    16    26    28    1
    17     7     8    1
    18     8    10    1
    19    10    11   ar
    20    11    12   ar
    21    12    13   ar
    22    13    14   ar
    23    14    15   ar
    24    15    16   ar
    25    16    17   ar
    26    17    18   ar
    27     8     1    1
    28    18    10   ar
    29    18    14   ar
    30     4     9    1
@<TRIPOS>MOLECULE
*****
 28 30 0 0 0
SMALL
GASTEIGER

@<TRIPOS>ATOM
      1 C          63.7437   86.8430   13.8328 C.2     1  UNL1        0.0708
      2 C          63.9274   88.3294   13.7506 C.2     1  UNL1        0.0283
      3 C          64.5909   89.0665   14.8759 C.3     1  UNL1        0.0470
      4 N          63.4475   89.0788   12.5429 N.pl3   1  UNL1       -0.3192
      5 C          62.7840   88.3416   11.4176 C.2     1  UNL1        0.0283
      6 C          62.3042   89.0910   10.2100 C.3     1  UNL1        0.0470
      7 C          62.6003   86.8552   11.4998 C.2     1  UNL1        0.0707
      8 C          63.0801   86.1059   12.7074 C.3     1  UNL1        0.0828
      9 H          63.5681   90.0544   12.4890 H       1  UNL1        0.1516
     10 C          62.8965   84.6194   12.7897 C.ar    1  UNL1        0.0087
     11 C          62.0026   84.0312   13.8409 C.ar    1  UNL1       -0.0019
     12 C          61.8189   82.5449   13.9232 C.ar    1  UNL1        0.0015
     13 C          62.5291   81.6465   12.9542 C.ar    1  UNL1        0.0241
     14 C          63.4230   82.2348   11.9030 C.ar    1  UNL1        0.1429
     15 N          64.2469   81.6051   10.8192 N.ar    1  UNL1       -0.0483
     16 O          64.9399   82.7025   10.0671 O.2     1  UNL1       -0.2415
     17 N          64.5441   84.0103   10.6861 N.ar    1  UNL1       -0.0486
     18 C          63.6066   83.7212   11.8207 C.ar    1  UNL1        0.1398
     19 C          64.2235   86.0936   15.0403 C.2     1  UNL1        0.3388
     20 O          64.9963   85.7273   15.2703 O.2     1  UNL1       -0.2452
     21 C          62.9467   86.9484   17.1355 C.3     1  UNL1        0.2559
     22 O          63.2885   85.8391   16.1854 O.3     1  UNL1       -0.4415
     23 C          61.9368   86.1180   10.3745 C.2     1  UNL1        0.3386
     24 O          62.7478   85.2295    9.4787 O.2     1  UNL1       -0.2452
     25 O          60.4622   86.2696   10.1451 O.3     1  UNL1       -0.4494
     26 C          59.9543   86.7331    8.8120 C.3     1  UNL1        0.1694
     27 C          59.3010   88.0773    8.6844 C.3     1  UNL1        0.0473
     28 C          60.0998   85.8524    7.6064 C.3     1  UNL1        0.0473
@<TRIPOS>BOND
     1    21    22    1
     2    22    19    1
     3    19    20    2
     4    19     1    1
     5     1     2    2
     6     2     3    1
     7     2     4    1
     8     4     5    1
     9     5     6    1
    10     5     7    2
    11     7    23    1
    12    23    24    2
    13    23    25    1
    14    25    26    1
    15    26    27    1
    16    26    28    1
    17     7     8    1
    18     8    10    1
    19    10    11   ar
    20    11    12   ar
    21    12    13   ar
    22    13    14   ar
    23    14    15   ar
    24    15    16   ar
    25    16    17   ar
    26    17    18   ar
    27     8     1    1
    28    18    10   ar
    29    18    14   ar
    30     4     9    1
@<TRIPOS>MOLECULE
*****
 28 30 0 0 0
SMALL
GASTEIGER

@<TRIPOS>ATOM
      1 C          65.0817   91.5227   12.4638 C.2     1  UNL1        0.0708
      2 C          65.1579   92.4481   11.2859 C.2     1  UNL1        0.0283
      3 C          66.2057   93.5205   11.2411 C.3     1  UNL1        0.0470
      4 N          64.1862   92.3012   10.1526 N.pl3   1  UNL1       -0.3192
      5 C          63.1384   91.2288   10.1973 C.2     1  UNL1        0.0283
      6 C          62.1667   91.0819    9.0641 C.3     1  UNL1        0.0470
      7 C          63.0622   90.3033   11.3754 C.2     1  UNL1        0.0707
      8 C          64.0338   90.4503   12.5086 C.3     1  UNL1        0.0828
      9 H          64.2362   92.9087    9.3794 H       1  UNL1        0.1516
     10 C          63.9577   89.5248   13.6866 C.ar    1  UNL1        0.0087
     11 C          64.1812   88.0533   13.5001 C.ar    1  UNL1       -0.0019
     12 C          64.1050   87.1279   14.6780 C.ar    1  UNL1        0.0015
     13 C          63.8054   87.6739   16.0427 C.ar    1  UNL1        0.0241
     14 C          63.5820   89.1454   16.2292 C.ar    1  UNL1        0.1429
     15 N          63.2713   89.9671   17.4450 N.ar    1  UNL1       -0.0483
     16 O          63.1554   91.4005   17.0184 O.2     1  UNL1       -0.2415
     17 N          63.3944   91.4646   15.5389 N.ar    1  UNL1       -0.0486
     18 C          63.6581   90.0708   15.0512 C.ar    1  UNL1        0.1398
     19 C          66.0534   91.6696   13.5971 C.2     1  UNL1        0.3388
     20 O          66.7366   91.1871   13.8883 O.2     1  UNL1       -0.2452
     21 C          66.6438   92.8174   15.8519 C.3     1  UNL1        0.2559
     22 O          65.9586   92.8499   14.5180 O.3     1  UNL1       -0.4415
     23 C          62.0144   89.2309   11.4201 C.2     1  UNL1        0.3386
     24 O          62.0160   88.1374   10.3935 O.2     1  UNL1       -0.2452
     25 O          60.9649   89.2521   12.4917 O.3     1  UNL1       -0.4494
     26 C          59.5597   89.6567   12.1573 C.3     1  UNL1        0.1694
     27 C          59.3116   90.8185   11.2415 C.3     1  UNL1        0.0473
     28 C          58.4027   88.8995   12.7387 C.3     1  UNL1        0.0473
@<TRIPOS>BOND
     1    21    22    1
     2    22    19    1
     3    19    20    2
     4    19     1    1
     5     1     2    2
     6     2     3    1
     7     2     4    1
     8     4     5    1
     9     5     6    1
    10     5     7    2
    11     7    23    1
    12    23    24    2
    13    23    25    1
    14    25    26    1
    15    26    27    1
    16    26    28    1
    17     7     8    1
    18     8    10    1
    19    10    11   ar
    20    11    12   ar
    21    12    13   ar
    22    13    14   ar
    23    14    15   ar
    24    15    16   ar
    25    16    17   ar
    26    17    18   ar
    27     8     1    1
    28    18    10   ar
    29    18    14   ar
    30     4     9    1
