@<TRIPOS>MOLECULE
*****
 40 44 0 0 0
SMALL
GASTEIGER

@<TRIPOS>ATOM
      1 C          63.0797   85.8611   13.0550 C.3     1  UNL1        0.1517
      2 C          62.3577   86.1219   11.7662 C.2     1  UNL1        0.3504
      3 N          62.7142   85.3419   10.5356 N.2     1  UNL1       -0.0411
      4 C          61.9923   85.6027    9.2470 C.2     1  UNL1        0.2134
      5 C          62.3488   84.8227    8.0163 C.3     1  UNL1        0.2481
      6 F          63.4274   83.7818    8.0744 F       1  UNL1       -0.2234
      7 C          61.6268   85.0835    6.7277 C.2     1  UNL1        0.0166
      8 C          60.5483   86.1243    6.6696 C.2     1  UNL1       -0.0053
      9 C          60.1917   86.9043    7.9001 C.2     1  UNL1       -0.0119
     10 C          59.1132   87.9452    7.8421 C.3     1  UNL1        0.0314
     11 C          60.9137   86.6436    9.1889 C.2     1  UNL1        0.1197
     12 C          60.5571   87.4236   10.4195 C.2     1  UNL1        0.3783
     13 O          59.4786   88.4644   10.3614 O.2     1  UNL1       -0.2376
     14 N          61.2791   87.1628   11.7081 N.am    1  UNL1        0.0324
     15 C          63.3258   84.4515   13.5048 C.ar    1  UNL1       -0.0070
     16 C          64.1696   84.1875   14.7165 C.ar    1  UNL1       -0.0035
     17 C          64.4157   82.7778   15.1663 C.ar    1  UNL1        0.0020
     18 C          63.8181   81.6322   14.4044 C.ar    1  UNL1        0.0296
     19 C          62.9743   81.8963   13.1927 C.ar    1  UNL1        0.1398
     20 F          62.3767   80.7508   12.4307 F       1  UNL1       -0.2042
     21 C          62.7282   83.3059   12.7428 C.ar    1  UNL1        0.0260
     22 C          63.5555   87.0100   13.8938 C.3     1  UNL1        0.1063
     23 C          63.5807   89.5767   13.4923 C.2     1  UNL1        0.2475
     24 O          62.3963   89.7304   14.3996 O.2     1  UNL1       -0.2701
     25 N          64.1604   88.2166   13.2394 N.am    1  UNL1       -0.2999
     26 H          64.9378   88.1157   12.6439 H       1  UNL1        0.1498
     27 C          65.3955   93.1963   11.5288 C.ar    1  UNL1        0.0863
     28 C          64.3951   92.3621   10.7851 C.ar    1  UNL1        0.0308
     29 C          63.7902   91.1556   11.4396 C.ar    1  UNL1        0.0643
     30 CL         62.7897   90.3213   10.6959 Cl      1  UNL1       -0.0820
     31 C          64.1857   90.7833   12.8378 C.ar    1  UNL1        0.0745
     32 C          65.1861   91.6175   13.5815 C.ar    1  UNL1        0.0643
     33 CL         65.5817   91.2453   14.9797 Cl      1  UNL1       -0.0820
     34 C          65.7910   92.8241   12.9270 C.ar    1  UNL1        0.0308
     35 C          67.6650   96.3736    7.9742 C.3     1  UNL1        0.0756
     36 C          67.0436   95.8633    9.2405 C.ar    1  UNL1        0.1613
     37 N          66.8190   96.6559   10.4941 N.ar    1  UNL1       -0.2073
     38 C          66.1743   95.7533   11.5038 C.ar    1  UNL1        0.2013
     39 N          66.0004   94.4029   10.8743 N.ar    1  UNL1       -0.2083
     40 N          66.5377   94.4709    9.4755 N.ar    1  UNL1       -0.1487
@<TRIPOS>BOND
     1    35    36    1
     2    36    37   ar
     3    37    38   ar
     4    38    39   ar
     5    39    27    1
     6    27    28   ar
     7    28    29   ar
     8    29    30    1
     9    29    31   ar
    10    31    23    1
    11    23    24    2
    12    23    25   am
    13    25    22    1
    14     1    22    1
    15     1    15    1
    16    15    16   ar
    17    16    17   ar
    18    17    18   ar
    19    18    19   ar
    20    19    20    1
    21    19    21   ar
    22     1     2    1
    23     2     3    1
    24     3     4    2
    25     4     5    1
    26     5     6    1
    27     5     7    1
    28     7     8    2
    29     8     9    1
    30     9    10    1
    31     9    11    2
    32    11    12    1
    33    12    13    2
    34    12    14    1
    35    31    32   ar
    36    32    33    1
    37    32    34   ar
    38    39    40   ar
    39    40    36   ar
    40    34    27   ar
    41    21    15   ar
    42    14     2    2
    43    11     4    1
    44    25    26    1
@<TRIPOS>MOLECULE
*****
 40 44 0 0 0
SMALL
GASTEIGER

@<TRIPOS>ATOM
      1 C          63.1466   85.7546   13.1968 C.3     1  UNL1        0.1517
      2 C          62.5628   85.8977   11.8224 C.2     1  UNL1        0.3504
      3 N          61.5184   86.9409   11.5562 N.2     1  UNL1       -0.0411
      4 C          60.9346   87.0840   10.1819 C.2     1  UNL1        0.2134
      5 C          59.8901   88.1273    9.9156 C.3     1  UNL1        0.2481
      6 F          59.4295   89.0274   11.0236 F       1  UNL1       -0.2234
      7 C          59.3063   88.2704    8.5413 C.2     1  UNL1        0.0166
      8 C          59.7669   87.3702    7.4333 C.2     1  UNL1       -0.0053
      9 C          60.8113   86.3270    7.6996 C.2     1  UNL1       -0.0119
     10 C          61.2719   85.4269    6.5916 C.3     1  UNL1        0.0314
     11 C          61.3951   86.1839    9.0739 C.2     1  UNL1        0.1197
     12 C          62.4395   85.1407    9.3402 C.2     1  UNL1        0.3783
     13 O          62.9001   84.2406    8.2322 O.2     1  UNL1       -0.2376
     14 N          63.0233   84.9976   10.7144 N.am    1  UNL1        0.0324
     15 C          63.3711   84.3901   13.7779 C.ar    1  UNL1       -0.0070
     16 C          64.6282   84.0980   14.5423 C.ar    1  UNL1       -0.0035
     17 C          64.8527   82.7335   15.1235 C.ar    1  UNL1        0.0020
     18 C          63.8201   81.6611   14.9402 C.ar    1  UNL1        0.0296
     19 C          62.5630   81.9532   14.1757 C.ar    1  UNL1        0.1398
     20 F          61.5304   80.8808   13.9924 F       1  UNL1       -0.2042
     21 C          62.3385   83.3177   13.5946 C.ar    1  UNL1        0.0260
     22 C          63.5060   86.9760   13.9899 C.3     1  UNL1        0.1063
     23 C          63.5849   89.5426   13.5948 C.2     1  UNL1        0.2475
     24 O          62.4637   89.7279   14.5738 O.2     1  UNL1       -0.2701
     25 N          64.1060   88.1667   13.3028 N.am    1  UNL1       -0.2999
     26 H          64.8419   88.0451   12.6602 H       1  UNL1        0.1498
     27 C          65.3853   93.1146   11.5334 C.ar    1  UNL1        0.0863
     28 C          64.3688   92.2716   10.8220 C.ar    1  UNL1        0.0308
     29 C          63.7688   91.0809   11.5091 C.ar    1  UNL1        0.0643
     30 CL         62.7523   90.2378   10.7977 Cl      1  UNL1       -0.0820
     31 C          64.1851   90.7334   12.9076 C.ar    1  UNL1        0.0745
     32 C          65.2015   91.5764   13.6190 C.ar    1  UNL1        0.0643
     33 CL         65.6178   91.2288   15.0175 Cl      1  UNL1       -0.0820
     34 C          65.8016   92.7671   12.9319 C.ar    1  UNL1        0.0308
     35 C          67.5713   96.2243    7.8683 C.3     1  UNL1        0.0756
     36 C          66.9902   95.7347    9.1616 C.ar    1  UNL1        0.1613
     37 N          66.8276   96.5407   10.4163 N.ar    1  UNL1       -0.2073
     38 C          66.2066   95.6573   11.4574 C.ar    1  UNL1        0.2013
     39 N          65.9854   94.3054   10.8462 N.ar    1  UNL1       -0.2083
     40 N          66.4697   94.3532    9.4274 N.ar    1  UNL1       -0.1487
@<TRIPOS>BOND
     1    35    36    1
     2    36    37   ar
     3    37    38   ar
     4    38    39   ar
     5    39    27    1
     6    27    28   ar
     7    28    29   ar
     8    29    30    1
     9    29    31   ar
    10    31    23    1
    11    23    24    2
    12    23    25   am
    13    25    22    1
    14     1    22    1
    15     1    15    1
    16    15    16   ar
    17    16    17   ar
    18    17    18   ar
    19    18    19   ar
    20    19    20    1
    21    19    21   ar
    22     1     2    1
    23     2     3    1
    24     3     4    2
    25     4     5    1
    26     5     6    1
    27     5     7    1
    28     7     8    2
    29     8     9    1
    30     9    10    1
    31     9    11    2
    32    11    12    1
    33    12    13    2
    34    12    14    1
    35    31    32   ar
    36    32    33    1
    37    32    34   ar
    38    39    40   ar
    39    40    36   ar
    40    34    27   ar
    41    21    15   ar
    42    14     2    2
    43    11     4    1
    44    25    26    1
@<TRIPOS>MOLECULE
*****
 40 44 0 0 0
SMALL
GASTEIGER

@<TRIPOS>ATOM
      1 C          61.8529   86.5599   10.2584 C.3     1  UNL1        0.1517
      2 C          62.3251   85.5903   11.3010 C.2     1  UNL1        0.3504
      3 N          62.3962   84.1256   10.9857 N.2     1  UNL1       -0.0411
      4 C          62.8684   83.1561   12.0283 C.2     1  UNL1        0.2134
      5 C          62.9395   81.6913   11.7130 C.3     1  UNL1        0.2481
      6 F          62.5383   81.1960   10.3552 F       1  UNL1       -0.2234
      7 C          63.4117   80.7218   12.7556 C.2     1  UNL1        0.0166
      8 C          63.8129   81.2170   14.1135 C.2     1  UNL1       -0.0053
      9 C          63.7418   82.6817   14.4288 C.2     1  UNL1       -0.0119
     10 C          64.1430   83.1770   15.7866 C.3     1  UNL1        0.0314
     11 C          63.2696   83.6513   13.3861 C.2     1  UNL1        0.1197
     12 C          63.1985   85.1161   13.7014 C.2     1  UNL1        0.3783
     13 O          63.5997   85.6113   15.0593 O.2     1  UNL1       -0.2376
     14 N          62.7263   86.0855   12.6588 N.am    1  UNL1        0.0324
     15 C          61.4755   86.0678    8.8926 C.ar    1  UNL1       -0.0070
     16 C          60.0738   86.2500    8.3906 C.ar    1  UNL1       -0.0035
     17 C          59.6964   85.7578    7.0247 C.ar    1  UNL1        0.0020
     18 C          60.7208   85.0835    6.1610 C.ar    1  UNL1        0.0296
     19 C          62.1225   84.9014    6.6630 C.ar    1  UNL1        0.1398
     20 F          63.1468   84.2271    5.7993 F       1  UNL1       -0.2042
     21 C          62.4998   85.3935    8.0288 C.ar    1  UNL1        0.0260
     22 C          61.7581   88.0216   10.5816 C.3     1  UNL1        0.1063
     23 C          62.7856   89.6694   12.3075 C.2     1  UNL1        0.2475
     24 O          61.4323   89.8691   12.9227 O.2     1  UNL1       -0.2701
     25 N          62.9485   88.7457   11.1369 N.am    1  UNL1       -0.2999
     26 H          63.8368   88.6146   10.7332 H       1  UNL1        0.1498
     27 C          66.3572   91.8417   13.9733 C.ar    1  UNL1        0.0863
     28 C          65.7958   92.2344   12.6389 C.ar    1  UNL1        0.0308
     29 C          64.6053   91.5103   12.0837 C.ar    1  UNL1        0.0643
     30 CL         64.0439   91.9030   10.7492 Cl      1  UNL1       -0.0820
     31 C          63.9762   90.3935   12.8628 C.ar    1  UNL1        0.0745
     32 C          64.5376   90.0008   14.1972 C.ar    1  UNL1        0.0643
     33 CL         63.9085   88.8841   14.9763 Cl      1  UNL1       -0.0820
     34 C          65.7281   90.7249   14.7524 C.ar    1  UNL1        0.0308
     35 C          69.3504   95.2988   16.6135 C.3     1  UNL1        0.0756
     36 C          68.9236   94.1548   15.7422 C.ar    1  UNL1        0.1613
     37 N          69.8361   93.2052   15.0241 N.ar    1  UNL1       -0.2073
     38 C          68.9858   92.2231   14.2741 C.ar    1  UNL1        0.2013
     39 N          67.5478   92.5658   14.5286 N.ar    1  UNL1       -0.2083
     40 N          67.5093   93.7597   15.4359 N.ar    1  UNL1       -0.1487
@<TRIPOS>BOND
     1    35    36    1
     2    36    37   ar
     3    37    38   ar
     4    38    39   ar
     5    39    27    1
     6    27    28   ar
     7    28    29   ar
     8    29    30    1
     9    29    31   ar
    10    31    23    1
    11    23    24    2
    12    23    25   am
    13    25    22    1
    14     1    22    1
    15     1    15    1
    16    15    16   ar
    17    16    17   ar
    18    17    18   ar
    19    18    19   ar
    20    19    20    1
    21    19    21   ar
    22     1     2    1
    23     2     3    1
    24     3     4    2
    25     4     5    1
    26     5     6    1
    27     5     7    1
    28     7     8    2
    29     8     9    1
    30     9    10    1
    31     9    11    2
    32    11    12    1
    33    12    13    2
    34    12    14    1
    35    31    32   ar
    36    32    33    1
    37    32    34   ar
    38    39    40   ar
    39    40    36   ar
    40    34    27   ar
    41    21    15   ar
    42    14     2    2
    43    11     4    1
    44    25    26    1
@<TRIPOS>MOLECULE
*****
 40 44 0 0 0
SMALL
GASTEIGER

@<TRIPOS>ATOM
      1 C          60.6656   87.9179   10.7024 C.3     1  UNL1        0.1517
      2 C          61.4794   86.7478   11.1701 C.2     1  UNL1        0.3504
      3 N          62.1195   85.8316   10.1697 N.2     1  UNL1       -0.0411
      4 C          62.9332   84.6616   10.6374 C.2     1  UNL1        0.2134
      5 C          63.5734   83.7453    9.6370 C.3     1  UNL1        0.2481
      6 F          63.3997   83.9992    8.1688 F       1  UNL1       -0.2234
      7 C          64.3871   82.5753   10.1047 C.2     1  UNL1        0.0166
      8 C          64.5608   82.3215   11.5728 C.2     1  UNL1       -0.0053
      9 C          63.9207   83.2377   12.5732 C.2     1  UNL1       -0.0119
     10 C          64.0944   82.9838   14.0413 C.3     1  UNL1        0.0314
     11 C          63.1069   84.4077   12.1055 C.2     1  UNL1        0.1197
     12 C          62.4668   85.3239   13.1059 C.2     1  UNL1        0.3783
     13 O          62.6405   85.0701   14.5741 O.2     1  UNL1       -0.2376
     14 N          61.6531   86.4939   12.6382 N.am    1  UNL1        0.0324
     15 C          60.1025   87.9320    9.3122 C.ar    1  UNL1       -0.0070
     16 C          59.5794   86.6656    8.7019 C.ar    1  UNL1       -0.0035
     17 C          59.0162   86.6798    7.3117 C.ar    1  UNL1        0.0020
     18 C          58.9762   87.9604    6.5318 C.ar    1  UNL1        0.0296
     19 C          59.4993   89.2269    7.1420 C.ar    1  UNL1        0.1398
     20 F          59.4593   90.5075    6.3621 F       1  UNL1       -0.2042
     21 C          60.0624   89.2127    8.5322 C.ar    1  UNL1        0.0260
     22 C          60.4150   89.0738   11.6249 C.3     1  UNL1        0.1063
     23 C          62.8043   90.0902   11.7125 C.2     1  UNL1        0.2475
     24 O          62.9293   89.9246   10.2269 O.2     1  UNL1       -0.2701
     25 N          61.5472   89.6648   12.4115 N.am    1  UNL1       -0.2999
     26 H          61.4652   89.7735   13.3865 H       1  UNL1        0.1498
     27 C          66.2010   91.8632   14.0724 C.ar    1  UNL1        0.0863
     28 C          65.4248   90.7064   14.6285 C.ar    1  UNL1        0.0308
     29 C          64.2926   90.1154   13.8419 C.ar    1  UNL1        0.0643
     30 CL         63.5164   88.9585   14.3981 Cl      1  UNL1       -0.0820
     31 C          63.9366   90.6812   12.4991 C.ar    1  UNL1        0.0745
     32 C          64.7128   91.8380   11.9430 C.ar    1  UNL1        0.0643
     33 CL         64.3567   92.4039   10.6002 Cl      1  UNL1       -0.0820
     34 C          65.8449   92.4290   12.7296 C.ar    1  UNL1        0.0308
     35 C          69.5559   95.3345   16.2116 C.3     1  UNL1        0.0756
     36 C          68.8753   94.0498   15.8423 C.ar    1  UNL1        0.1613
     37 N          69.2759   92.6775   16.2968 N.ar    1  UNL1       -0.2073
     38 C          68.3228   91.6914   15.6891 C.ar    1  UNL1        0.2013
     39 N          67.3333   92.4542   14.8590 N.ar    1  UNL1       -0.2083
     40 N          67.6747   93.9117   14.9538 N.ar    1  UNL1       -0.1487
@<TRIPOS>BOND
     1    35    36    1
     2    36    37   ar
     3    37    38   ar
     4    38    39   ar
     5    39    27    1
     6    27    28   ar
     7    28    29   ar
     8    29    30    1
     9    29    31   ar
    10    31    23    1
    11    23    24    2
    12    23    25   am
    13    25    22    1
    14     1    22    1
    15     1    15    1
    16    15    16   ar
    17    16    17   ar
    18    17    18   ar
    19    18    19   ar
    20    19    20    1
    21    19    21   ar
    22     1     2    1
    23     2     3    1
    24     3     4    2
    25     4     5    1
    26     5     6    1
    27     5     7    1
    28     7     8    2
    29     8     9    1
    30     9    10    1
    31     9    11    2
    32    11    12    1
    33    12    13    2
    34    12    14    1
    35    31    32   ar
    36    32    33    1
    37    32    34   ar
    38    39    40   ar
    39    40    36   ar
    40    34    27   ar
    41    21    15   ar
    42    14     2    2
    43    11     4    1
    44    25    26    1
@<TRIPOS>MOLECULE
*****
 40 44 0 0 0
SMALL
GASTEIGER

@<TRIPOS>ATOM
      1 C          61.4941   86.8251   10.6175 C.3     1  UNL1        0.1517
      2 C          62.0993   85.7530   11.4745 C.2     1  UNL1        0.3504
      3 N          62.8177   86.1201   12.7391 N.2     1  UNL1       -0.0411
      4 C          63.4229   85.0480   13.5960 C.2     1  UNL1        0.2134
      5 C          64.1413   85.4150   14.8607 C.3     1  UNL1        0.2481
      6 F          64.2545   86.8541   15.2683 F       1  UNL1       -0.2234
      7 C          64.7465   84.3430   15.7176 C.2     1  UNL1        0.0166
      8 C          64.6333   82.9039   15.3100 C.2     1  UNL1       -0.0053
      9 C          63.9150   82.5368   14.0454 C.2     1  UNL1       -0.0119
     10 C          63.8018   81.0977   13.6378 C.3     1  UNL1        0.0314
     11 C          63.3097   83.6089   13.1884 C.2     1  UNL1        0.1197
     12 C          62.5914   83.2419   11.9238 C.2     1  UNL1        0.3783
     13 O          62.4782   81.8028   11.5162 O.2     1  UNL1       -0.2376
     14 N          61.9862   84.3139   11.0669 N.am    1  UNL1        0.0324
     15 C          60.9691   86.4877    9.2535 C.ar    1  UNL1       -0.0070
     16 C          59.6175   86.9793    8.8274 C.ar    1  UNL1       -0.0035
     17 C          59.0925   86.6418    7.4633 C.ar    1  UNL1        0.0020
     18 C          59.9191   85.8130    6.5254 C.ar    1  UNL1        0.0296
     19 C          61.2707   85.3214    6.9516 C.ar    1  UNL1        0.1398
     20 F          62.0973   84.4925    6.0137 F       1  UNL1       -0.2042
     21 C          61.7957   85.6588    8.3155 C.ar    1  UNL1        0.0260
     22 C          61.4139   88.2345   11.1245 C.3     1  UNL1        0.1063
     23 C          62.7416   90.3128   11.9417 C.2     1  UNL1        0.2475
     24 O          61.7688   91.2113   11.2372 O.2     1  UNL1       -0.2701
     25 N          62.5641   88.8244   11.8854 N.am    1  UNL1       -0.2999
     26 H          63.2026   88.2347   12.3478 H       1  UNL1        0.1498
     27 C          66.1923   92.0825   14.2244 C.ar    1  UNL1        0.0863
     28 C          65.2245   91.1694   14.9169 C.ar    1  UNL1        0.0308
     29 C          64.0742   90.5796   14.1560 C.ar    1  UNL1        0.0643
     30 CL         63.1063   89.6665   14.8485 Cl      1  UNL1       -0.0820
     31 C          63.8919   90.9028   12.7026 C.ar    1  UNL1        0.0745
     32 C          64.8597   91.8158   12.0101 C.ar    1  UNL1        0.0643
     33 CL         64.6773   92.1390   10.5568 Cl      1  UNL1       -0.0820
     34 C          66.0099   92.4057   12.7710 C.ar    1  UNL1        0.0308
     35 C          69.6728   95.5346   16.1865 C.3     1  UNL1        0.0756
     36 C          68.9424   94.2591   15.8872 C.ar    1  UNL1        0.1613
     37 N          69.2830   92.9010   16.4252 N.ar    1  UNL1       -0.2073
     38 C          68.2943   91.9203   15.8678 C.ar    1  UNL1        0.2013
     39 N          67.3426   92.6724   14.9853 N.ar    1  UNL1       -0.2083
     40 N          67.7432   94.1178   14.9973 N.ar    1  UNL1       -0.1487
@<TRIPOS>BOND
     1    35    36    1
     2    36    37   ar
     3    37    38   ar
     4    38    39   ar
     5    39    27    1
     6    27    28   ar
     7    28    29   ar
     8    29    30    1
     9    29    31   ar
    10    31    23    1
    11    23    24    2
    12    23    25   am
    13    25    22    1
    14     1    22    1
    15     1    15    1
    16    15    16   ar
    17    16    17   ar
    18    17    18   ar
    19    18    19   ar
    20    19    20    1
    21    19    21   ar
    22     1     2    1
    23     2     3    1
    24     3     4    2
    25     4     5    1
    26     5     6    1
    27     5     7    1
    28     7     8    2
    29     8     9    1
    30     9    10    1
    31     9    11    2
    32    11    12    1
    33    12    13    2
    34    12    14    1
    35    31    32   ar
    36    32    33    1
    37    32    34   ar
    38    39    40   ar
    39    40    36   ar
    40    34    27   ar
    41    21    15   ar
    42    14     2    2
    43    11     4    1
    44    25    26    1
@<TRIPOS>MOLECULE
*****
 40 44 0 0 0
SMALL
GASTEIGER

@<TRIPOS>ATOM
      1 C          59.9043   93.5674   -0.5996 C.3     1  UNL1        0.1517
      2 C          59.2628   93.3952   -1.9446 C.2     1  UNL1        0.3504
      3 N          58.0845   92.4804   -2.1020 N.2     1  UNL1       -0.0411
      4 C          57.4431   92.3083   -3.4469 C.2     1  UNL1        0.2134
      5 C          56.2648   91.3935   -3.6043 C.3     1  UNL1        0.2481
      6 F          55.7280   90.6508   -2.4168 F       1  UNL1       -0.2234
      7 C          55.6233   91.2214   -4.9492 C.2     1  UNL1        0.0166
      8 C          56.1601   91.9641   -6.1368 C.2     1  UNL1       -0.0053
      9 C          57.3383   92.8789   -5.9794 C.2     1  UNL1       -0.0119
     10 C          57.8751   93.6216   -7.1669 C.3     1  UNL1        0.0314
     11 C          57.9799   93.0510   -4.6344 C.2     1  UNL1        0.1197
     12 C          59.1581   93.9658   -4.4770 C.2     1  UNL1        0.3783
     13 O          59.6949   94.7086   -5.6646 O.2     1  UNL1       -0.2376
     14 N          59.7996   94.1380   -3.1321 N.am    1  UNL1        0.0324
     15 C          61.3991   93.6072   -0.4812 C.ar    1  UNL1       -0.0070
     16 C          62.2540   93.3534   -1.6873 C.ar    1  UNL1       -0.0035
     17 C          63.7488   93.3931   -1.5688 C.ar    1  UNL1        0.0020
     18 C          64.3887   93.6867   -0.2443 C.ar    1  UNL1        0.0296
     19 C          63.5337   93.9406    0.9618 C.ar    1  UNL1        0.1398
     20 F          64.1736   94.2342    2.2863 F       1  UNL1       -0.2042
     21 C          62.0390   93.9008    0.8434 C.ar    1  UNL1        0.0260
     22 C          59.0510   93.6997    0.6269 C.3     1  UNL1        0.1063
     23 C          59.5052   93.0085    3.0898 C.2     1  UNL1        0.2475
     24 O          59.8613   94.4271    3.4223 O.2     1  UNL1       -0.2701
     25 N          59.1000   92.6448    1.6921 N.am    1  UNL1       -0.2999
     26 H          58.8663   91.7137    1.4739 H       1  UNL1        0.1498
     27 C          59.6521   89.8435    6.2853 C.ar    1  UNL1        0.0863
     28 C          58.3491   90.5019    5.9412 C.ar    1  UNL1        0.0308
     29 C          58.3001   91.5569    4.8761 C.ar    1  UNL1        0.0643
     30 CL         56.9969   92.2153    4.5319 Cl      1  UNL1       -0.0820
     31 C          59.5542   91.9535    4.1550 C.ar    1  UNL1        0.0745
     32 C          60.8573   91.2951    4.4991 C.ar    1  UNL1        0.0643
     33 CL         62.1114   91.6917    3.7781 Cl      1  UNL1       -0.0820
     34 C          60.9063   90.2401    5.5643 C.ar    1  UNL1        0.0308
     35 C          60.6364   87.3324   10.8248 C.3     1  UNL1        0.0756
     36 C          60.1536   87.6343    9.4370 C.ar    1  UNL1        0.1613
     37 N          59.3996   86.6957    8.5422 N.ar    1  UNL1       -0.2073
     38 C          59.1200   87.4091    7.2527 C.ar    1  UNL1        0.2013
     39 N          59.7012   88.7885    7.3505 N.ar    1  UNL1       -0.2083
     40 N          60.3399   88.9277    8.7006 N.ar    1  UNL1       -0.1487
@<TRIPOS>BOND
     1    35    36    1
     2    36    37   ar
     3    37    38   ar
     4    38    39   ar
     5    39    27    1
     6    27    28   ar
     7    28    29   ar
     8    29    30    1
     9    29    31   ar
    10    31    23    1
    11    23    24    2
    12    23    25   am
    13    25    22    1
    14     1    22    1
    15     1    15    1
    16    15    16   ar
    17    16    17   ar
    18    17    18   ar
    19    18    19   ar
    20    19    20    1
    21    19    21   ar
    22     1     2    1
    23     2     3    1
    24     3     4    2
    25     4     5    1
    26     5     6    1
    27     5     7    1
    28     7     8    2
    29     8     9    1
    30     9    10    1
    31     9    11    2
    32    11    12    1
    33    12    13    2
    34    12    14    1
    35    31    32   ar
    36    32    33    1
    37    32    34   ar
    38    39    40   ar
    39    40    36   ar
    40    34    27   ar
    41    21    15   ar
    42    14     2    2
    43    11     4    1
    44    25    26    1
