@<TRIPOS>MOLECULE
*****
 32 35 0 0 0
SMALL
GASTEIGER

@<TRIPOS>ATOM
      1 O          62.7269   88.1900   11.8516 O.2     1  UNL1       -0.2699
      2 C          61.8766   87.2986   10.9957 C.2     1  UNL1        0.2492
      3 N          61.0491   87.8863    9.8913 N.am    1  UNL1       -0.2761
      4 C          60.1988   86.9950    9.0355 C.3     1  UNL1        0.0938
      5 C          59.3712   87.5827    7.9311 C.3     1  UNL1        0.0230
      6 C          59.3940   89.0618    7.6825 C.3     1  UNL1        0.0194
      7 C          60.2443   89.9532    8.5383 C.3     1  UNL1        0.0230
      8 C          61.0719   89.3654    9.6428 C.3     1  UNL1        0.0938
      9 C          61.8538   85.8195   11.2444 C.2     1  UNL1        0.0579
     10 C          62.7143   85.2265   12.3205 C.2     1  UNL1        0.0047
     11 C          62.6915   83.7474   12.5691 C.ar    1  UNL1        0.0010
     12 C          62.4907   83.2237   13.9603 C.ar    1  UNL1        0.0009
     13 C          62.4679   81.7447   14.2088 C.ar    1  UNL1        0.0122
     14 C          62.6460   80.7893   13.0662 C.ar    1  UNL1        0.0682
     15 CL         62.6232   79.3102   13.3149 Cl      1  UNL1       -0.0814
     16 C          62.8468   81.3130   11.6751 C.ar    1  UNL1        0.0682
     17 CL         63.0249   80.3576   10.5325 Cl      1  UNL1       -0.0814
     18 C          62.8696   82.7920   11.4265 C.ar    1  UNL1        0.0122
     19 C          58.5665   89.6495    6.5781 C.3     1  UNL1        0.0722
     20 N          59.2050   90.5431    5.5565 N.3     1  UNL1       -0.2727
     21 C          58.3713   91.5369    4.8033 C.3     1  UNL1        0.0724
     22 C          59.0099   92.4305    3.7817 C.3     1  UNL1        0.0217
     23 C          60.4822   92.3304    3.5133 C.3     1  UNL1        0.0251
     24 C          61.3160   91.3366    4.2664 C.3     1  UNL1        0.0217
     25 C          60.6774   90.4430    5.2880 C.3     1  UNL1        0.0724
     26 C          61.1208   93.2240    2.4917 C.ar    1  UNL1       -0.0224
     27 C          60.5053   94.5531    2.1684 C.ar    1  UNL1       -0.0034
     28 C          61.1439   95.4468    1.1468 C.ar    1  UNL1        0.0111
     29 C          62.3979   95.0113    0.4485 C.ar    1  UNL1        0.0577
     30 CL         63.0365   95.9049   -0.5731 Cl      1  UNL1       -0.0822
     31 C          63.0134   93.6821    0.7718 C.ar    1  UNL1        0.0111
     32 C          62.3748   92.7885    1.7934 C.ar    1  UNL1       -0.0034
@<TRIPOS>BOND
     1     1     2    2
     2     2     9    1
     3     9    10    2
     4    10    11    1
     5    11    12   ar
     6    12    13   ar
     7    13    14   ar
     8    14    15    1
     9    14    16   ar
    10    16    17    1
    11    16    18   ar
    12     2     3   am
    13     3     4    1
    14     4     5    1
    15     5     6    1
    16     6    19    1
    17    19    20    1
    18    20    21    1
    19    21    22    1
    20    22    23    1
    21    23    26    1
    22    26    27   ar
    23    27    28   ar
    24    28    29   ar
    25    29    30    1
    26    29    31   ar
    27    31    32   ar
    28    23    24    1
    29    24    25    1
    30     6     7    1
    31     7     8    1
    32    18    11   ar
    33     8     3    1
    34    25    20    1
    35    32    26   ar
@<TRIPOS>MOLECULE
*****
 32 35 0 0 0
SMALL
GASTEIGER

@<TRIPOS>ATOM
      1 O          62.3801   84.5080   17.3409 O.2     1  UNL1       -0.2699
      2 C          62.9136   85.1550   16.0972 C.2     1  UNL1        0.2492
      3 N          63.2049   86.6264   16.0831 N.am    1  UNL1       -0.2761
      4 C          63.7384   87.2734   14.8394 C.3     1  UNL1        0.0938
      5 C          64.0296   88.7447   14.8252 C.3     1  UNL1        0.0230
      6 C          63.7875   89.5692   16.0548 C.3     1  UNL1        0.0194
      7 C          63.2540   88.9221   17.2985 C.3     1  UNL1        0.0230
      8 C          62.9627   87.4507   17.3126 C.3     1  UNL1        0.0938
      9 C          63.1558   84.3306   14.8677 C.2     1  UNL1        0.0579
     10 C          62.3503   83.0883   14.6270 C.2     1  UNL1        0.0047
     11 C          62.5925   82.2639   13.3974 C.ar    1  UNL1        0.0010
     12 C          62.2380   80.8065   13.3898 C.ar    1  UNL1        0.0009
     13 C          62.4802   79.9821   12.1603 C.ar    1  UNL1        0.0122
     14 C          63.0769   80.6153   10.9384 C.ar    1  UNL1        0.0682
     15 CL         63.3191   79.7909    9.7088 Cl      1  UNL1       -0.0814
     16 C          63.4314   82.0727   10.9460 C.ar    1  UNL1        0.0682
     17 CL         64.0281   82.7059    9.7240 Cl      1  UNL1       -0.0814
     18 C          63.1892   82.8971   12.1755 C.ar    1  UNL1        0.0122
     19 C          64.0787   91.0405   16.0406 C.3     1  UNL1        0.0722
     20 N          64.6323   91.6836   14.8037 N.3     1  UNL1       -0.2727
     21 C          64.0219   91.3859   13.4663 C.3     1  UNL1        0.0724
     22 C          64.5754   92.0290   12.2293 C.3     1  UNL1        0.0217
     23 C          65.7393   92.9699   12.3298 C.3     1  UNL1        0.0251
     24 C          66.3497   93.2676   13.6673 C.3     1  UNL1        0.0217
     25 C          65.7962   92.6244   14.9042 C.3     1  UNL1        0.0724
     26 C          66.2928   93.6130   11.0929 C.ar    1  UNL1       -0.0224
     27 C          65.9020   95.0171   10.7385 C.ar    1  UNL1       -0.0034
     28 C          66.4555   95.6602    9.5016 C.ar    1  UNL1        0.0111
     29 C          67.3998   94.8992    8.6190 C.ar    1  UNL1        0.0577
     30 CL         67.9534   95.5423    7.3821 Cl      1  UNL1       -0.0822
     31 C          67.7907   93.4951    8.9734 C.ar    1  UNL1        0.0111
     32 C          67.2372   92.8520   10.2103 C.ar    1  UNL1       -0.0034
@<TRIPOS>BOND
     1     1     2    2
     2     2     9    1
     3     9    10    2
     4    10    11    1
     5    11    12   ar
     6    12    13   ar
     7    13    14   ar
     8    14    15    1
     9    14    16   ar
    10    16    17    1
    11    16    18   ar
    12     2     3   am
    13     3     4    1
    14     4     5    1
    15     5     6    1
    16     6    19    1
    17    19    20    1
    18    20    21    1
    19    21    22    1
    20    22    23    1
    21    23    26    1
    22    26    27   ar
    23    27    28   ar
    24    28    29   ar
    25    29    30    1
    26    29    31   ar
    27    31    32   ar
    28    23    24    1
    29    24    25    1
    30     6     7    1
    31     7     8    1
    32    18    11   ar
    33     8     3    1
    34    25    20    1
    35    32    26   ar
@<TRIPOS>MOLECULE
*****
 32 35 0 0 0
SMALL
GASTEIGER

@<TRIPOS>ATOM
      1 O          63.9594   92.7023   16.0687 O.2     1  UNL1       -0.2699
      2 C          64.2767   91.5980   15.1044 C.2     1  UNL1        0.2492
      3 N          64.0347   90.1698   15.4935 N.am    1  UNL1       -0.2761
      4 C          64.3520   89.0656   14.5292 C.3     1  UNL1        0.0938
      5 C          64.1100   87.6373   14.9183 C.3     1  UNL1        0.0230
      6 C          63.5506   87.3133   16.2719 C.3     1  UNL1        0.0194
      7 C          63.2332   88.4175   17.2363 C.3     1  UNL1        0.0230
      8 C          63.4753   89.8458   16.8470 C.3     1  UNL1        0.0938
      9 C          64.8362   91.9221   13.7508 C.2     1  UNL1        0.0579
     10 C          65.7772   93.0785   13.5854 C.2     1  UNL1        0.0047
     11 C          66.3366   93.4025   12.2318 C.ar    1  UNL1        0.0010
     12 C          66.1700   94.7798   11.6616 C.ar    1  UNL1        0.0009
     13 C          66.7294   95.1038   10.3081 C.ar    1  UNL1        0.0122
     14 C          67.4555   94.0506    9.5248 C.ar    1  UNL1        0.0682
     15 CL         68.0149   94.3746    8.1713 Cl      1  UNL1       -0.0814
     16 C          67.6221   92.6733   10.0951 C.ar    1  UNL1        0.0682
     17 CL         68.3481   91.6200    9.3119 Cl      1  UNL1       -0.0814
     18 C          67.0626   92.3492   11.4486 C.ar    1  UNL1        0.0122
     19 C          63.3085   85.8850   16.6611 C.3     1  UNL1        0.0722
     20 N          63.2469   84.8204   15.6062 N.3     1  UNL1       -0.2727
     21 C          62.0394   83.9367   15.5020 C.3     1  UNL1        0.0724
     22 C          61.9778   82.8721   14.4472 C.3     1  UNL1        0.0217
     23 C          63.1238   82.6910   13.4965 C.3     1  UNL1        0.0251
     24 C          64.3314   83.5746   13.6007 C.3     1  UNL1        0.0217
     25 C          64.3930   84.6393   14.6556 C.3     1  UNL1        0.0724
     26 C          63.0623   81.6264   12.4417 C.ar    1  UNL1       -0.0224
     27 C          63.4030   81.9592   11.0194 C.ar    1  UNL1       -0.0034
     28 C          63.3415   80.8945    9.9645 C.ar    1  UNL1        0.0111
     29 C          62.9392   79.4970   10.3320 C.ar    1  UNL1        0.0577
     30 CL         62.8776   78.4323    9.2772 Cl      1  UNL1       -0.0822
     31 C          62.5984   79.1642   11.7543 C.ar    1  UNL1        0.0111
     32 C          62.6600   80.2288   12.8092 C.ar    1  UNL1       -0.0034
@<TRIPOS>BOND
     1     1     2    2
     2     2     9    1
     3     9    10    2
     4    10    11    1
     5    11    12   ar
     6    12    13   ar
     7    13    14   ar
     8    14    15    1
     9    14    16   ar
    10    16    17    1
    11    16    18   ar
    12     2     3   am
    13     3     4    1
    14     4     5    1
    15     5     6    1
    16     6    19    1
    17    19    20    1
    18    20    21    1
    19    21    22    1
    20    22    23    1
    21    23    26    1
    22    26    27   ar
    23    27    28   ar
    24    28    29   ar
    25    29    30    1
    26    29    31   ar
    27    31    32   ar
    28    23    24    1
    29    24    25    1
    30     6     7    1
    31     7     8    1
    32    18    11   ar
    33     8     3    1
    34    25    20    1
    35    32    26   ar
@<TRIPOS>MOLECULE
*****
 32 35 0 0 0
SMALL
GASTEIGER

@<TRIPOS>ATOM
      1 O          61.8780   85.3189   10.8272 O.2     1  UNL1       -0.2699
      2 C          61.8879   86.8157   10.7288 C.2     1  UNL1        0.2492
      3 N          61.0389   87.5055    9.7025 N.am    1  UNL1       -0.2761
      4 C          61.0488   89.0022    9.6041 C.3     1  UNL1        0.0938
      5 C          60.1998   89.6920    8.5779 C.3     1  UNL1        0.0230
      6 C          59.3407   88.8850    7.6499 C.3     1  UNL1        0.0194
      7 C          59.3308   87.3883    7.7483 C.3     1  UNL1        0.0230
      8 C          60.1799   86.6985    8.7747 C.3     1  UNL1        0.0938
      9 C          62.7470   87.6226   11.6567 C.2     1  UNL1        0.0579
     10 C          62.7386   89.1203   11.5745 C.2     1  UNL1        0.0047
     11 C          63.5976   89.9273   12.5024 C.ar    1  UNL1        0.0010
     12 C          63.8262   89.4602   13.9094 C.ar    1  UNL1        0.0009
     13 C          64.6852   90.2671   14.8372 C.ar    1  UNL1        0.0122
     14 C          65.3156   91.5411   14.3581 C.ar    1  UNL1        0.0682
     15 CL         66.1746   92.3481   15.2861 Cl      1  UNL1       -0.0814
     16 C          65.0870   92.0082   12.9512 C.ar    1  UNL1        0.0682
     17 CL         65.7174   93.2822   12.4721 Cl      1  UNL1       -0.0814
     18 C          64.2280   91.2013   12.0233 C.ar    1  UNL1        0.0122
     19 C          58.4917   89.5748    6.6237 C.3     1  UNL1        0.0722
     20 N          59.1276   90.4761    5.6071 N.3     1  UNL1       -0.2727
     21 C          60.6052   90.4027    5.3597 C.3     1  UNL1        0.0724
     22 C          61.2411   91.3039    4.3431 C.3     1  UNL1        0.0217
     23 C          60.3995   92.2785    3.5740 C.3     1  UNL1        0.0251
     24 C          58.9219   92.3519    3.8214 C.3     1  UNL1        0.0217
     25 C          58.2859   91.4507    4.8380 C.3     1  UNL1        0.0724
     26 C          61.0354   93.1797    2.5574 C.ar    1  UNL1       -0.0224
     27 C          62.3240   92.7797    1.9021 C.ar    1  UNL1       -0.0034
     28 C          62.9599   93.6809    0.8856 C.ar    1  UNL1        0.0111
     29 C          62.3072   94.9822    0.5243 C.ar    1  UNL1        0.0577
     30 CL         62.9431   95.8834   -0.4923 Cl      1  UNL1       -0.0822
     31 C          61.0186   95.3823    1.1796 C.ar    1  UNL1        0.0111
     32 C          60.3827   94.4811    2.1961 C.ar    1  UNL1       -0.0034
@<TRIPOS>BOND
     1     1     2    2
     2     2     9    1
     3     9    10    2
     4    10    11    1
     5    11    12   ar
     6    12    13   ar
     7    13    14   ar
     8    14    15    1
     9    14    16   ar
    10    16    17    1
    11    16    18   ar
    12     2     3   am
    13     3     4    1
    14     4     5    1
    15     5     6    1
    16     6    19    1
    17    19    20    1
    18    20    21    1
    19    21    22    1
    20    22    23    1
    21    23    26    1
    22    26    27   ar
    23    27    28   ar
    24    28    29   ar
    25    29    30    1
    26    29    31   ar
    27    31    32   ar
    28    23    24    1
    29    24    25    1
    30     6     7    1
    31     7     8    1
    32    18    11   ar
    33     8     3    1
    34    25    20    1
    35    32    26   ar
@<TRIPOS>MOLECULE
*****
 32 35 0 0 0
SMALL
GASTEIGER

@<TRIPOS>ATOM
      1 O          62.4713   86.8091   12.1909 O.2     1  UNL1       -0.2699
      2 C          62.3941   88.1884   11.6066 C.2     1  UNL1        0.2492
      3 N          61.4931   88.4586   10.4383 N.am    1  UNL1       -0.2761
      4 C          61.4159   89.8379    9.8539 C.3     1  UNL1        0.0938
      5 C          60.5148   90.1082    8.6856 C.3     1  UNL1        0.0230
      6 C          59.6908   88.9990    8.1016 C.3     1  UNL1        0.0194
      7 C          59.7680   87.6197    8.6860 C.3     1  UNL1        0.0230
      8 C          60.6691   87.3495    9.8543 C.3     1  UNL1        0.0938
      9 C          63.2181   89.2975   12.1905 C.2     1  UNL1        0.0579
     10 C          63.8367   89.1378   13.5477 C.2     1  UNL1        0.0047
     11 C          64.6606   90.2469   14.1317 C.ar    1  UNL1        0.0010
     12 C          65.8657   90.7533   13.3960 C.ar    1  UNL1        0.0009
     13 C          66.6896   91.8624   13.9800 C.ar    1  UNL1        0.0122
     14 C          66.3084   92.4650   15.2997 C.ar    1  UNL1        0.0682
     15 CL         67.1324   93.5742   15.8836 Cl      1  UNL1       -0.0814
     16 C          65.1034   91.9586   16.0353 C.ar    1  UNL1        0.0682
     17 CL         64.7222   92.5613   17.3550 Cl      1  UNL1       -0.0814
     18 C          64.2795   90.8496   15.4513 C.ar    1  UNL1        0.0122
     19 C          58.7898   89.2693    6.9333 C.3     1  UNL1        0.0722
     20 N          59.2282   90.2091    5.8495 N.3     1  UNL1       -0.2727
     21 C          58.2265   91.1046    5.1828 C.3     1  UNL1        0.0724
     22 C          58.6650   92.0444    4.0991 C.3     1  UNL1        0.0217
     23 C          60.1052   92.0887    3.6821 C.3     1  UNL1        0.0251
     24 C          61.1069   91.1932    4.3488 C.3     1  UNL1        0.0217
     25 C          60.6684   90.2534    5.4325 C.3     1  UNL1        0.0724
     26 C          60.5436   93.0286    2.5983 C.ar    1  UNL1       -0.0224
     27 C          59.5236   93.6783    1.7111 C.ar    1  UNL1       -0.0034
     28 C          59.9621   94.6182    0.6273 C.ar    1  UNL1        0.0111
     29 C          61.4206   94.9082    0.4309 C.ar    1  UNL1        0.0577
     30 CL         61.8591   95.8480   -0.6529 Cl      1  UNL1       -0.0822
     31 C          62.4406   94.2584    1.3181 C.ar    1  UNL1        0.0111
     32 C          62.0021   93.3186    2.4019 C.ar    1  UNL1       -0.0034
@<TRIPOS>BOND
     1     1     2    2
     2     2     9    1
     3     9    10    2
     4    10    11    1
     5    11    12   ar
     6    12    13   ar
     7    13    14   ar
     8    14    15    1
     9    14    16   ar
    10    16    17    1
    11    16    18   ar
    12     2     3   am
    13     3     4    1
    14     4     5    1
    15     5     6    1
    16     6    19    1
    17    19    20    1
    18    20    21    1
    19    21    22    1
    20    22    23    1
    21    23    26    1
    22    26    27   ar
    23    27    28   ar
    24    28    29   ar
    25    29    30    1
    26    29    31   ar
    27    31    32   ar
    28    23    24    1
    29    24    25    1
    30     6     7    1
    31     7     8    1
    32    18    11   ar
    33     8     3    1
    34    25    20    1
    35    32    26   ar
