@<TRIPOS>MOLECULE
*****
 29 31 0 0 0
SMALL
GASTEIGER

@<TRIPOS>ATOM
      1 C          63.0299   89.6119   12.0165 C.ar    1  UNL1        0.0942
      2 C          63.1583   90.5342   10.8406 C.ar    1  UNL1        0.1078
      3 N          63.9939   91.7751   10.9485 N.ar    1  UNL1       -0.2119
      4 C          64.7013   92.0938   12.2323 C.ar    1  UNL1        0.2206
      5 N          64.5729   91.1715   13.4082 N.ar    1  UNL1       -0.2094
      6 C          63.7373   89.9305   13.3003 C.ar    1  UNL1        0.1613
      7 O          60.6984   88.4668   11.9651 O.2     1  UNL1       -0.2700
      8 C          62.1942   88.3709   11.9087 C.2     1  UNL1        0.2488
      9 N          62.8544   87.0340   11.7444 N.am    1  UNL1       -0.3008
     10 H          63.8362   86.9711   11.7074 H       1  UNL1        0.1497
     11 C          62.0187   85.7930   11.6366 C.3     1  UNL1        0.0896
     12 C          62.6698   84.4733   11.3462 C.3     1  UNL1        0.0196
     13 C          62.6698   83.2732   12.2461 C.3     1  UNL1        0.0017
     14 C          63.4351   82.1801   11.5611 C.3     1  UNL1        0.0001
     15 C          63.9082   82.7046   10.2377 C.3     1  UNL1        0.0001
     16 C          63.4352   84.1219   10.1050 C.3     1  UNL1        0.0017
     17 C          63.6089   89.0081   14.4763 C.3     1  UNL1        0.4351
     18 F          63.4805   88.0858   15.6522 F       1  UNL1       -0.1644
     19 F          62.5447   89.8932   15.0543 F       1  UNL1       -0.1644
     20 F          64.6731   88.1231   13.8983 F       1  UNL1       -0.1644
     21 N          65.5370   93.3348   12.3402 N.pl3   1  UNL1       -0.2825
     22 H          65.5474   93.8498   13.1791 H       1  UNL1        0.1551
     23 C          66.3567   93.7910   11.1698 C.ar    1  UNL1        0.0513
     24 C          66.3077   95.2253   10.7333 C.ar    1  UNL1        0.0147
     25 C          67.1275   95.6815    9.5629 C.ar    1  UNL1        0.0021
     26 C          67.9963   94.7034    8.8290 C.ar    1  UNL1        0.0115
     27 C          68.0454   93.2692    9.2655 C.ar    1  UNL1        0.0589
     28 CL         68.9142   92.2912    8.5317 Cl      1  UNL1       -0.0822
     29 C          67.2256   92.8130   10.4359 C.ar    1  UNL1        0.0261
@<TRIPOS>BOND
     1     7     8    2
     2     8     9   am
     3     9    11    1
     4    11    12    1
     5    12    13    1
     6    13    14    1
     7    14    15    1
     8    15    16    1
     9     8     1    1
    10     1     2   ar
    11     2     3   ar
    12     3     4   ar
    13     4    21    1
    14    21    23    1
    15    23    24   ar
    16    24    25   ar
    17    25    26   ar
    18    26    27   ar
    19    27    28    1
    20    27    29   ar
    21     4     5   ar
    22     5     6   ar
    23     6    17    1
    24    17    18    1
    25    17    19    1
    26    17    20    1
    27    16    12    1
    28     6     1   ar
    29    29    23   ar
    30     9    10    1
    31    21    22    1
@<TRIPOS>MOLECULE
*****
 29 31 0 0 0
SMALL
GASTEIGER

@<TRIPOS>ATOM
      1 C          62.9702   89.1326   12.1839 C.ar    1  UNL1        0.0942
      2 C          63.8716   89.2929   13.3721 C.ar    1  UNL1        0.1078
      3 N          64.6693   90.5514   13.5439 N.ar    1  UNL1       -0.2119
      4 C          64.5657   91.6497   12.5275 C.ar    1  UNL1        0.2206
      5 N          63.6643   91.4894   11.3393 N.ar    1  UNL1       -0.2094
      6 C          62.8666   90.2308   11.1675 C.ar    1  UNL1        0.1613
      7 O          60.6886   87.9489   11.8055 O.2     1  UNL1       -0.2700
      8 C          62.1724   87.8739   12.0121 C.2     1  UNL1        0.2488
      9 N          62.8584   86.5405   12.0469 N.am    1  UNL1       -0.3008
     10 H          63.8322   86.4913   12.1825 H       1  UNL1        0.1497
     11 C          62.0606   85.2819   11.8751 C.3     1  UNL1        0.0896
     12 C          62.7458   84.0078   11.4788 C.3     1  UNL1        0.0196
     13 C          62.6457   82.6934   12.1946 C.3     1  UNL1        0.0017
     14 C          63.4895   81.6976   11.4553 C.3     1  UNL1        0.0001
     15 C          64.1109   82.3966   10.2825 C.3     1  UNL1        0.0001
     16 C          63.6513   83.8243   10.2971 C.3     1  UNL1        0.0017
     17 C          61.9651   90.0705    9.9793 C.3     1  UNL1        0.4351
     18 F          61.0637   89.9101    8.7912 F       1  UNL1       -0.1644
     19 F          60.9717   91.0025   10.6073 F       1  UNL1       -0.1644
     20 F          62.9586   89.1384    9.3514 F       1  UNL1       -0.1644
     21 N          65.3635   92.9083   12.6993 N.pl3   1  UNL1       -0.2825
     22 H          65.3650   93.3758   13.5657 H       1  UNL1        0.1551
     23 C          66.1591   93.4546   11.5510 C.ar    1  UNL1        0.0513
     24 C          66.0912   94.9160   11.2196 C.ar    1  UNL1        0.0147
     25 C          66.8869   95.4623   10.0712 C.ar    1  UNL1        0.0021
     26 C          67.7502   94.5473    9.2544 C.ar    1  UNL1        0.0115
     27 C          67.8180   93.0859    9.5858 C.ar    1  UNL1        0.0589
     28 CL         68.6814   92.1709    8.7690 Cl      1  UNL1       -0.0822
     29 C          67.0225   92.5396   10.7341 C.ar    1  UNL1        0.0261
@<TRIPOS>BOND
     1     7     8    2
     2     8     9   am
     3     9    11    1
     4    11    12    1
     5    12    13    1
     6    13    14    1
     7    14    15    1
     8    15    16    1
     9     8     1    1
    10     1     2   ar
    11     2     3   ar
    12     3     4   ar
    13     4    21    1
    14    21    23    1
    15    23    24   ar
    16    24    25   ar
    17    25    26   ar
    18    26    27   ar
    19    27    28    1
    20    27    29   ar
    21     4     5   ar
    22     5     6   ar
    23     6    17    1
    24    17    18    1
    25    17    19    1
    26    17    20    1
    27    16    12    1
    28     6     1   ar
    29    29    23   ar
    30     9    10    1
    31    21    22    1
@<TRIPOS>MOLECULE
*****
 29 31 0 0 0
SMALL
GASTEIGER

@<TRIPOS>ATOM
      1 C          64.3415   89.6305   14.1408 C.ar    1  UNL1        0.0942
      2 C          65.4712   90.4271   14.7233 C.ar    1  UNL1        0.1078
      3 N          65.8777   91.7251   14.0909 N.ar    1  UNL1       -0.2119
      4 C          65.1545   92.2265   12.8762 C.ar    1  UNL1        0.2206
      5 N          64.0249   91.4299   12.2937 N.ar    1  UNL1       -0.2094
      6 C          63.6184   90.1319   12.9261 C.ar    1  UNL1        0.1613
      7 O          63.1695   88.3339   16.0632 O.2     1  UNL1       -0.2700
      8 C          63.9350   88.3324   14.7732 C.2     1  UNL1        0.2488
      9 N          64.2939   87.0330   14.1156 N.am    1  UNL1       -0.3008
     10 H          64.7963   87.0320   13.2689 H       1  UNL1        0.1497
     11 C          63.8873   85.7349   14.7479 C.3     1  UNL1        0.0896
     12 C          63.3837   84.6097   13.8934 C.3     1  UNL1        0.0196
     13 C          63.1893   84.6504   12.4066 C.3     1  UNL1        0.0017
     14 C          62.6716   83.3121   11.9700 C.3     1  UNL1        0.0001
     15 C          62.5459   82.4441   13.1869 C.3     1  UNL1        0.0001
     16 C          62.9860   83.2461   14.3756 C.3     1  UNL1        0.0017
     17 C          62.4887   89.3352   12.3437 C.3     1  UNL1        0.4351
     18 F          61.3590   88.5386   11.7613 F       1  UNL1       -0.1644
     19 F          61.5191   90.0668   13.2238 F       1  UNL1       -0.1644
     20 F          63.4583   88.6037   11.4635 F       1  UNL1       -0.1644
     21 N          65.5611   93.5246   12.2438 N.pl3   1  UNL1       -0.2825
     22 H          65.2262   94.3757   12.6080 H       1  UNL1        0.1551
     23 C          66.4779   93.5258   11.0566 C.ar    1  UNL1        0.0513
     24 C          67.3066   92.3143   10.7477 C.ar    1  UNL1        0.0147
     25 C          68.2234   92.3155    9.5604 C.ar    1  UNL1        0.0021
     26 C          68.3114   93.5283    8.6821 C.ar    1  UNL1        0.0115
     27 C          67.4827   94.7398    8.9911 C.ar    1  UNL1        0.0589
     28 CL         67.5708   95.9526    8.1128 Cl      1  UNL1       -0.0822
     29 C          66.5660   94.7386   10.1783 C.ar    1  UNL1        0.0261
@<TRIPOS>BOND
     1     7     8    2
     2     8     9   am
     3     9    11    1
     4    11    12    1
     5    12    13    1
     6    13    14    1
     7    14    15    1
     8    15    16    1
     9     8     1    1
    10     1     2   ar
    11     2     3   ar
    12     3     4   ar
    13     4    21    1
    14    21    23    1
    15    23    24   ar
    16    24    25   ar
    17    25    26   ar
    18    26    27   ar
    19    27    28    1
    20    27    29   ar
    21     4     5   ar
    22     5     6   ar
    23     6    17    1
    24    17    18    1
    25    17    19    1
    26    17    20    1
    27    16    12    1
    28     6     1   ar
    29    29    23   ar
    30     9    10    1
    31    21    22    1
@<TRIPOS>MOLECULE
*****
 29 31 0 0 0
SMALL
GASTEIGER

@<TRIPOS>ATOM
      1 C          63.3857   86.8676   13.0678 C.ar    1  UNL1        0.0942
      2 C          63.0653   88.1118   12.2938 C.ar    1  UNL1        0.1078
      3 N          63.2860   89.4592   12.9150 N.ar    1  UNL1       -0.2119
      4 C          63.8272   89.5623   14.3102 C.ar    1  UNL1        0.2206
      5 N          64.1476   88.3180   15.0842 N.ar    1  UNL1       -0.2094
      6 C          63.9269   86.9707   14.4630 C.ar    1  UNL1        0.1613
      7 O          61.9325   85.2630   11.6313 O.2     1  UNL1       -0.2700
      8 C          63.1650   85.5202   12.4467 C.2     1  UNL1        0.2488
      9 N          64.1768   84.4300   12.6409 N.am    1  UNL1       -0.3008
     10 H          64.9857   84.5987   13.1760 H       1  UNL1        0.1497
     11 C          63.9561   83.0825   12.0197 C.3     1  UNL1        0.0896
     12 C          63.0945   82.0691   12.7129 C.3     1  UNL1        0.0196
     13 C          62.2374   82.3176   13.9186 C.3     1  UNL1        0.0017
     14 C          61.5519   81.0314   14.2731 C.3     1  UNL1        0.0001
     15 C          61.9852   79.9879   13.2864 C.3     1  UNL1        0.0001
     16 C          62.9386   80.6293   12.3222 C.3     1  UNL1        0.0017
     17 C          64.2473   85.7263   15.2370 C.3     1  UNL1        0.4351
     18 F          64.5678   84.4821   16.0110 F       1  UNL1       -0.1644
     19 F          65.7014   85.8985   14.9118 F       1  UNL1       -0.1644
     20 F          62.7932   85.5542   15.5623 F       1  UNL1       -0.1644
     21 N          64.0479   90.9097   14.9314 N.pl3   1  UNL1       -0.2825
     22 H          63.2913   91.3985   15.3287 H       1  UNL1        0.1551
     23 C          65.4214   91.5124   14.9472 C.ar    1  UNL1        0.0513
     24 C          65.8620   92.3442   16.1150 C.ar    1  UNL1        0.0147
     25 C          67.2356   92.9469   16.1308 C.ar    1  UNL1        0.0021
     26 C          68.1684   92.7178   14.9787 C.ar    1  UNL1        0.0115
     27 C          67.7277   91.8860   13.8108 C.ar    1  UNL1        0.0589
     28 CL         68.6605   91.6569   12.6587 Cl      1  UNL1       -0.0822
     29 C          66.3542   91.2833   13.7950 C.ar    1  UNL1        0.0261
@<TRIPOS>BOND
     1     7     8    2
     2     8     9   am
     3     9    11    1
     4    11    12    1
     5    12    13    1
     6    13    14    1
     7    14    15    1
     8    15    16    1
     9     8     1    1
    10     1     2   ar
    11     2     3   ar
    12     3     4   ar
    13     4    21    1
    14    21    23    1
    15    23    24   ar
    16    24    25   ar
    17    25    26   ar
    18    26    27   ar
    19    27    28    1
    20    27    29   ar
    21     4     5   ar
    22     5     6   ar
    23     6    17    1
    24    17    18    1
    25    17    19    1
    26    17    20    1
    27    16    12    1
    28     6     1   ar
    29    29    23   ar
    30     9    10    1
    31    21    22    1
@<TRIPOS>MOLECULE
*****
 29 31 0 0 0
SMALL
GASTEIGER

@<TRIPOS>ATOM
      1 C          60.4586   87.4377    9.2447 C.ar    1  UNL1        0.0942
      2 C          61.1429   86.1169    9.0525 C.ar    1  UNL1        0.1078
      3 N          62.0648   85.5888   10.1114 N.ar    1  UNL1       -0.2119
      4 C          62.3024   86.3816   11.3624 C.ar    1  UNL1        0.2206
      5 N          61.6180   87.7025   11.5545 N.ar    1  UNL1       -0.2094
      6 C          60.6962   88.2305   10.4957 C.ar    1  UNL1        0.1613
      7 O          58.2772   87.2236    7.8497 O.2     1  UNL1       -0.2700
      8 C          59.5366   87.9658    8.1858 C.2     1  UNL1        0.2488
      9 N          59.8741   89.2362    7.4631 N.am    1  UNL1       -0.3008
     10 H          60.7007   89.7233    7.6837 H       1  UNL1        0.1497
     11 C          58.9522   89.7643    6.4042 C.3     1  UNL1        0.0896
     12 C          59.4476   90.7783    5.4161 C.3     1  UNL1        0.0196
     13 C          58.6277   91.8587    4.7754 C.3     1  UNL1        0.0017
     14 C          59.5232   92.6381    3.8586 C.3     1  UNL1        0.0001
     15 C          60.8966   92.0393    3.9326 C.3     1  UNL1        0.0001
     16 C          60.8498   90.8899    4.8953 C.3     1  UNL1        0.0017
     17 C          60.0118   89.5515   10.6878 C.3     1  UNL1        0.4351
     18 F          59.3274   90.8723   10.8799 F       1  UNL1       -0.1644
     19 F          58.9005   88.8680   11.4279 F       1  UNL1       -0.1644
     20 F          61.1231   90.2349    9.9477 F       1  UNL1       -0.1644
     21 N          63.2243   85.8535   12.4213 N.pl3   1  UNL1       -0.2825
     22 H          63.9997   86.3872   12.7097 H       1  UNL1        0.1551
     23 C          62.9649   84.5122   13.0406 C.ar    1  UNL1        0.0513
     24 C          62.6471   84.4102   14.5031 C.ar    1  UNL1        0.0147
     25 C          62.3877   83.0689   15.1224 C.ar    1  UNL1        0.0021
     26 C          62.4460   81.8296   14.2794 C.ar    1  UNL1        0.0115
     27 C          62.7638   81.9316   12.8170 C.ar    1  UNL1        0.0589
     28 CL         62.8221   80.6923   11.9740 Cl      1  UNL1       -0.0822
     29 C          63.0232   83.2728   12.1976 C.ar    1  UNL1        0.0261
@<TRIPOS>BOND
     1     7     8    2
     2     8     9   am
     3     9    11    1
     4    11    12    1
     5    12    13    1
     6    13    14    1
     7    14    15    1
     8    15    16    1
     9     8     1    1
    10     1     2   ar
    11     2     3   ar
    12     3     4   ar
    13     4    21    1
    14    21    23    1
    15    23    24   ar
    16    24    25   ar
    17    25    26   ar
    18    26    27   ar
    19    27    28    1
    20    27    29   ar
    21     4     5   ar
    22     5     6   ar
    23     6    17    1
    24    17    18    1
    25    17    19    1
    26    17    20    1
    27    16    12    1
    28     6     1   ar
    29    29    23   ar
    30     9    10    1
    31    21    22    1
@<TRIPOS>MOLECULE
*****
 29 31 0 0 0
SMALL
GASTEIGER

@<TRIPOS>ATOM
      1 C          63.9916   91.1546   11.8658 C.ar    1  UNL1        0.0942
      2 C          63.3594   90.9736   10.5177 C.ar    1  UNL1        0.1078
      3 N          62.2860   89.9438   10.3249 N.ar    1  UNL1       -0.2119
      4 C          61.8448   89.0949   11.4803 C.ar    1  UNL1        0.2206
      5 N          62.4770   89.2759   12.8284 N.ar    1  UNL1       -0.2094
      6 C          63.5504   90.3058   13.0212 C.ar    1  UNL1        0.1613
      7 O          66.2066   91.9121   12.9927 O.2     1  UNL1       -0.2700
      8 C          65.0650   92.1846   12.0587 C.2     1  UNL1        0.2488
      9 N          64.9968   93.4868   11.3175 N.am    1  UNL1       -0.3008
     10 H          64.2475   93.6656   10.7044 H       1  UNL1        0.1497
     11 C          66.0702   94.5167   11.5103 C.3     1  UNL1        0.0896
     12 C          66.6871   95.1891   10.3198 C.3     1  UNL1        0.0196
     13 C          67.6587   94.5670    9.3611 C.3     1  UNL1        0.0017
     14 C          68.0128   95.5950    8.3277 C.3     1  UNL1        0.0001
     15 C          67.2600   96.8524    8.6477 C.3     1  UNL1        0.0001
     16 C          66.4407   96.6015    9.8789 C.3     1  UNL1        0.0017
     17 C          64.1827   90.4869   14.3694 C.3     1  UNL1        0.4351
     18 F          64.8149   90.6680   15.7175 F       1  UNL1       -0.1644
     19 F          63.3794   91.7362   14.5783 F       1  UNL1       -0.1644
     20 F          64.9860   89.2375   14.1605 F       1  UNL1       -0.1644
     21 N          60.7714   88.0650   11.2874 N.pl3   1  UNL1       -0.2825
     22 H          60.1314   87.8794   12.0121 H       1  UNL1        0.1551
     23 C          60.6731   87.3179    9.9905 C.ar    1  UNL1        0.0513
     24 C          59.4309   87.4234    9.1564 C.ar    1  UNL1        0.0147
     25 C          59.3327   86.6762    7.8594 C.ar    1  UNL1        0.0021
     26 C          60.4767   85.8237    7.3965 C.ar    1  UNL1        0.0115
     27 C          61.7189   85.7182    8.2305 C.ar    1  UNL1        0.0589
     28 CL         62.8629   84.8656    7.7676 Cl      1  UNL1       -0.0822
     29 C          61.8172   86.4653    9.5275 C.ar    1  UNL1        0.0261
@<TRIPOS>BOND
     1     7     8    2
     2     8     9   am
     3     9    11    1
     4    11    12    1
     5    12    13    1
     6    13    14    1
     7    14    15    1
     8    15    16    1
     9     8     1    1
    10     1     2   ar
    11     2     3   ar
    12     3     4   ar
    13     4    21    1
    14    21    23    1
    15    23    24   ar
    16    24    25   ar
    17    25    26   ar
    18    26    27   ar
    19    27    28    1
    20    27    29   ar
    21     4     5   ar
    22     5     6   ar
    23     6    17    1
    24    17    18    1
    25    17    19    1
    26    17    20    1
    27    16    12    1
    28     6     1   ar
    29    29    23   ar
    30     9    10    1
    31    21    22    1
@<TRIPOS>MOLECULE
*****
 29 31 0 0 0
SMALL
GASTEIGER

@<TRIPOS>ATOM
      1 C          62.7990   86.8868   11.9524 C.ar    1  UNL1        0.0942
      2 C          63.5579   87.1660   13.2158 C.ar    1  UNL1        0.1078
      3 N          63.7579   88.5804   13.6734 N.ar    1  UNL1       -0.2119
      4 C          63.1991   89.7155   12.8677 C.ar    1  UNL1        0.2206
      5 N          62.4402   89.4363   11.6044 N.ar    1  UNL1       -0.2094
      6 C          62.2401   88.0219   11.1467 C.ar    1  UNL1        0.1613
      7 O          61.3985   85.1137   10.6699 O.2     1  UNL1       -0.2700
      8 C          62.5989   85.4724   11.4947 C.2     1  UNL1        0.2488
      9 N          63.5992   84.4166   11.8619 N.am    1  UNL1       -0.3008
     10 H          64.3870   84.6521   12.4033 H       1  UNL1        0.1497
     11 C          63.3991   83.0022   11.4042 C.3     1  UNL1        0.0896
     12 C          62.8112   81.9874   12.3393 C.3     1  UNL1        0.0196
     13 C          62.1243   82.2808   13.6401 C.3     1  UNL1        0.0017
     14 C          61.6956   80.9757   14.2426 C.3     1  UNL1        0.0001
     15 C          62.1176   79.8757   13.3142 C.3     1  UNL1        0.0001
     16 C          62.8071   80.5010   12.1379 C.3     1  UNL1        0.0017
     17 C          61.4812   87.7426    9.8834 C.3     1  UNL1        0.4351
     18 F          60.7222   87.4634    8.6201 F       1  UNL1       -0.1644
     19 F          60.1886   87.9686   10.6100 F       1  UNL1       -0.1644
     20 F          62.7738   87.5166    9.1567 F       1  UNL1       -0.1644
     21 N          63.3992   91.1300   13.3254 N.pl3   1  UNL1       -0.2825
     22 H          62.6213   91.6867   13.5584 H       1  UNL1        0.1551
     23 C          64.7844   91.6962   13.4281 C.ar    1  UNL1        0.0513
     24 C          65.4363   92.3068   12.2231 C.ar    1  UNL1        0.0147
     25 C          66.8216   92.8730   12.3258 C.ar    1  UNL1        0.0021
     26 C          67.5548   92.8286   13.6336 C.ar    1  UNL1        0.0115
     27 C          66.9029   92.2179   14.8386 C.ar    1  UNL1        0.0589
     28 CL         67.6362   92.1735   16.1464 Cl      1  UNL1       -0.0822
     29 C          65.5177   91.6518   14.7359 C.ar    1  UNL1        0.0261
@<TRIPOS>BOND
     1     7     8    2
     2     8     9   am
     3     9    11    1
     4    11    12    1
     5    12    13    1
     6    13    14    1
     7    14    15    1
     8    15    16    1
     9     8     1    1
    10     1     2   ar
    11     2     3   ar
    12     3     4   ar
    13     4    21    1
    14    21    23    1
    15    23    24   ar
    16    24    25   ar
    17    25    26   ar
    18    26    27   ar
    19    27    28    1
    20    27    29   ar
    21     4     5   ar
    22     5     6   ar
    23     6    17    1
    24    17    18    1
    25    17    19    1
    26    17    20    1
    27    16    12    1
    28     6     1   ar
    29    29    23   ar
    30     9    10    1
    31    21    22    1
@<TRIPOS>MOLECULE
*****
 29 31 0 0 0
SMALL
GASTEIGER

@<TRIPOS>ATOM
      1 C          62.8513   87.2839   12.2489 C.ar    1  UNL1        0.0942
      2 C          63.6721   87.3900   13.4999 C.ar    1  UNL1        0.1078
      3 N          63.9889   88.7379   14.0769 N.ar    1  UNL1       -0.2119
      4 C          63.4847   89.9795   13.4030 C.ar    1  UNL1        0.2206
      5 N          62.6638   89.8733   12.1521 N.ar    1  UNL1       -0.2094
      6 C          62.3471   88.5255   11.5751 C.ar    1  UNL1        0.1613
      7 O          61.3222   85.7566   10.8070 O.2     1  UNL1       -0.2700
      8 C          62.5345   85.9360   11.6719 C.2     1  UNL1        0.2488
      9 N          63.4301   84.7676   11.9597 N.am    1  UNL1       -0.3008
     10 H          64.2258   84.8854   12.5273 H       1  UNL1        0.1497
     11 C          63.1133   83.4198   11.3826 C.3     1  UNL1        0.0896
     12 C          62.7139   82.2917   12.2870 C.3     1  UNL1        0.0196
     13 C          62.1189   82.4285   13.6571 C.3     1  UNL1        0.0017
     14 C          61.8767   81.0502   14.1970 C.3     1  UNL1        0.0001
     15 C          62.3220   80.0615   13.1605 C.3     1  UNL1        0.0001
     16 C          62.8394   80.8288   11.9801 C.3     1  UNL1        0.0017
     17 C          61.5262   88.4193   10.3241 C.3     1  UNL1        0.4351
     18 F          60.7053   88.3131    9.0732 F       1  UNL1       -0.1644
     19 F          60.2734   88.5846   11.1322 F       1  UNL1       -0.1644
     20 F          62.7790   88.2540    9.5159 F       1  UNL1       -0.1644
     21 N          63.8015   91.3274   13.9801 N.pl3   1  UNL1       -0.2825
     22 H          63.0797   91.9792   14.1335 H       1  UNL1        0.1551
     23 C          65.2178   91.6822   14.3234 C.ar    1  UNL1        0.0513
     24 C          65.5489   92.2114   15.6874 C.ar    1  UNL1        0.0147
     25 C          66.9654   92.5662   16.0307 C.ar    1  UNL1        0.0021
     26 C          68.0507   92.3918   15.0101 C.ar    1  UNL1        0.0115
     27 C          67.7196   91.8626   13.6462 C.ar    1  UNL1        0.0589
     28 CL         68.8049   91.6882   12.6256 Cl      1  UNL1       -0.0822
     29 C          66.3032   91.5078   13.3028 C.ar    1  UNL1        0.0261
@<TRIPOS>BOND
     1     7     8    2
     2     8     9   am
     3     9    11    1
     4    11    12    1
     5    12    13    1
     6    13    14    1
     7    14    15    1
     8    15    16    1
     9     8     1    1
    10     1     2   ar
    11     2     3   ar
    12     3     4   ar
    13     4    21    1
    14    21    23    1
    15    23    24   ar
    16    24    25   ar
    17    25    26   ar
    18    26    27   ar
    19    27    28    1
    20    27    29   ar
    21     4     5   ar
    22     5     6   ar
    23     6    17    1
    24    17    18    1
    25    17    19    1
    26    17    20    1
    27    16    12    1
    28     6     1   ar
    29    29    23   ar
    30     9    10    1
    31    21    22    1
@<TRIPOS>MOLECULE
*****
 29 31 0 0 0
SMALL
GASTEIGER

@<TRIPOS>ATOM
      1 C          63.8643   90.9940   12.1407 C.ar    1  UNL1        0.0942
      2 C          63.3827   91.3808   10.7738 C.ar    1  UNL1        0.1078
      3 N          62.1734   90.7142   10.1882 N.ar    1  UNL1       -0.2119
      4 C          61.4456   89.6607   10.9695 C.ar    1  UNL1        0.2206
      5 N          61.9271   89.2738   12.3363 N.ar    1  UNL1       -0.2094
      6 C          63.1364   89.9404   12.9220 C.ar    1  UNL1        0.1613
      7 O          66.0172   90.8774   13.5903 O.2     1  UNL1       -0.2700
      8 C          65.0737   91.6606   12.7264 C.2     1  UNL1        0.2488
      9 N          65.3395   93.1104   12.4482 N.am    1  UNL1       -0.3008
     10 H          64.7202   93.6244   11.8812 H       1  UNL1        0.1497
     11 C          66.5489   93.7770   13.0339 C.3     1  UNL1        0.0896
     12 C          67.1498   93.2568   14.3060 C.3     1  UNL1        0.0196
     13 C          68.5636   92.7894   14.4866 C.3     1  UNL1        0.0017
     14 C          68.7301   92.3564   15.9130 C.3     1  UNL1        0.0001
     15 C          67.4190   92.5562   16.6141 C.3     1  UNL1        0.0001
     16 C          66.4424   93.1127   15.6209 C.3     1  UNL1        0.0017
     17 C          63.6180   89.5535   14.2889 C.3     1  UNL1        0.4351
     18 F          64.0996   89.1667   15.6558 F       1  UNL1       -0.1644
     19 F          63.0778   90.8385   14.8429 F       1  UNL1       -0.1644
     20 F          64.1582   88.2685   13.7350 F       1  UNL1       -0.1644
     21 N          60.2361   88.9940   10.3838 N.pl3   1  UNL1       -0.2825
     22 H          59.3349   89.2998   10.6359 H       1  UNL1        0.1551
     23 C          60.3998   87.8615    9.4139 C.ar    1  UNL1        0.0513
     24 C          59.2716   87.4893    8.4982 C.ar    1  UNL1        0.0147
     25 C          59.4354   86.3567    7.5283 C.ar    1  UNL1        0.0021
     26 C          60.7273   85.5965    7.4742 C.ar    1  UNL1        0.0115
     27 C          61.8555   85.9687    8.3900 C.ar    1  UNL1        0.0589
     28 CL         63.1474   85.2085    8.3359 Cl      1  UNL1       -0.0822
     29 C          61.6918   87.1012    9.3598 C.ar    1  UNL1        0.0261
@<TRIPOS>BOND
     1     7     8    2
     2     8     9   am
     3     9    11    1
     4    11    12    1
     5    12    13    1
     6    13    14    1
     7    14    15    1
     8    15    16    1
     9     8     1    1
    10     1     2   ar
    11     2     3   ar
    12     3     4   ar
    13     4    21    1
    14    21    23    1
    15    23    24   ar
    16    24    25   ar
    17    25    26   ar
    18    26    27   ar
    19    27    28    1
    20    27    29   ar
    21     4     5   ar
    22     5     6   ar
    23     6    17    1
    24    17    18    1
    25    17    19    1
    26    17    20    1
    27    16    12    1
    28     6     1   ar
    29    29    23   ar
    30     9    10    1
    31    21    22    1
