@<TRIPOS>MOLECULE
*****
 35 39 0 0 0
SMALL
GASTEIGER

@<TRIPOS>ATOM
      1 C          63.4642   85.6486   14.3551 C.3     1  UNL1        0.0933
      2 C          64.0129   86.6870   13.4219 C.3     1  UNL1        0.0442
      3 C          64.1710   88.1045   13.8865 C.3     1  UNL1        0.0953
      4 N          63.7804   88.4835   15.2843 N.am    1  UNL1       -0.2794
      5 C          63.9385   89.9010   15.7490 C.2     1  UNL1        0.2252
      6 O          63.5479   90.2800   17.1467 O.2     1  UNL1       -0.2749
      7 C          63.2318   87.4451   16.2174 C.3     1  UNL1        0.0953
      8 C          63.0737   86.0277   15.7528 C.3     1  UNL1        0.0442
      9 N          62.9238   81.8345   13.8801 N.ar    1  UNL1       -0.2773
     10 C          62.9882   83.0493   14.7576 C.ar    1  UNL1        0.3316
     11 O          62.7724   83.0773   16.2418 O.2     1  UNL1       -0.2463
     12 N          63.3062   84.2312   13.8904 N.ar    1  UNL1       -0.2817
     13 C          63.4384   83.7468   12.4769 C.ar    1  UNL1        0.0796
     14 C          63.7433   84.4631   11.1948 C.ar    1  UNL1        0.0188
     15 C          63.8120   83.6982    9.9064 C.ar    1  UNL1        0.0016
     16 C          63.5757   82.2170    9.9000 C.ar    1  UNL1        0.0016
     17 C          63.2707   81.5006   11.1821 C.ar    1  UNL1        0.0188
     18 C          63.2021   82.2655   12.4705 C.ar    1  UNL1        0.0798
     19 C          62.6324   80.4344   14.3326 C.3     1  UNL1        0.1425
     20 C          61.2901   79.8225   14.0614 C.3     1  UNL1        0.1668
     21 C          58.7314   79.9168   14.5022 C.3     1  UNL1        0.1742
     22 O          60.0412   80.6189   14.2982 O.3     1  UNL1       -0.3490
     23 C          64.4871   90.9393   14.8158 C.3     1  UNL1        0.0795
     24 C          63.9568   91.0456   13.4167 C.3     1  UNL1        0.0264
     25 C          64.5056   92.0840   12.4835 C.3     1  UNL1        0.0729
     26 N          65.5845   93.0161   12.9495 N.3     1  UNL1       -0.2689
     27 C          66.1148   92.9098   14.3486 C.3     1  UNL1        0.0729
     28 C          65.5661   91.8714   15.2817 C.3     1  UNL1        0.0264
     29 C          66.1331   94.0544   12.0163 C.3     1  UNL1        0.0992
     30 C          66.9050   93.6368   10.7998 C.ar    1  UNL1       -0.0031
     31 C          67.6043   92.3100   10.7742 C.ar    1  UNL1        0.0178
     32 C          68.3762   91.8924    9.5577 C.ar    1  UNL1        0.0986
     33 N          68.4487   92.8016    8.3669 N.ar    1  UNL1       -0.2423
     34 C          67.7494   94.1284    8.3925 C.ar    1  UNL1        0.0986
     35 C          66.9775   94.5460    9.6090 C.ar    1  UNL1        0.0178
@<TRIPOS>BOND
     1    21    22    1
     2    22    20    1
     3    20    19    1
     4    19     9    1
     5     9    10   ar
     6    10    11    2
     7    10    12   ar
     8    12     1    1
     9     1     2    1
    10     2     3    1
    11     3     4    1
    12     4     5   am
    13     5     6    2
    14     5    23    1
    15    23    24    1
    16    24    25    1
    17    25    26    1
    18    26    29    1
    19    29    30    1
    20    30    31   ar
    21    31    32   ar
    22    32    33   ar
    23    33    34   ar
    24    34    35   ar
    25    26    27    1
    26    27    28    1
    27     4     7    1
    28     7     8    1
    29    12    13   ar
    30    13    14   ar
    31    14    15   ar
    32    15    16   ar
    33    16    17   ar
    34    17    18   ar
    35    18     9   ar
    36     8     1    1
    37    18    13   ar
    38    28    23    1
    39    35    30   ar
@<TRIPOS>MOLECULE
*****
 35 39 0 0 0
SMALL
GASTEIGER

@<TRIPOS>ATOM
      1 C          61.9522   88.5953   10.9619 C.3     1  UNL1        0.0933
      2 C          61.9958   89.7375    9.9904 C.3     1  UNL1        0.0442
      3 C          61.1073   89.7285    8.7819 C.3     1  UNL1        0.0953
      4 N          60.1753   88.5774    8.5447 N.am    1  UNL1       -0.2794
      5 C          59.2868   88.5685    7.3362 C.2     1  UNL1        0.2252
      6 O          58.3548   87.4174    7.0990 O.2     1  UNL1       -0.2749
      7 C          60.1317   87.4353    9.5161 C.3     1  UNL1        0.0953
      8 C          61.0201   87.4443   10.7246 C.3     1  UNL1        0.0442
      9 N          64.2266   89.3675   14.0107 N.ar    1  UNL1       -0.2773
     10 C          63.3933   89.8223   12.8494 C.ar    1  UNL1        0.3316
     11 O          63.1546   91.2452   12.4390 O.2     1  UNL1       -0.2463
     12 N          62.8406   88.6043   12.1704 N.ar    1  UNL1       -0.2817
     13 C          63.3323   87.3967   12.9121 C.ar    1  UNL1        0.0796
     14 C          63.1107   85.9287   12.6988 C.ar    1  UNL1        0.0188
     15 C          63.7458   84.9323   13.6229 C.ar    1  UNL1        0.0016
     16 C          64.6024   85.4040   14.7603 C.ar    1  UNL1        0.0016
     17 C          64.8239   86.8721   14.9736 C.ar    1  UNL1        0.0188
     18 C          64.1889   87.8685   14.0496 C.ar    1  UNL1        0.0798
     19 C          64.9675   90.2558   14.9657 C.3     1  UNL1        0.1425
     20 C          65.9949   91.2194   14.4503 C.3     1  UNL1        0.1668
     21 C          66.1389   93.2941   12.8931 C.3     1  UNL1        0.1742
     22 O          65.6040   92.6312   14.1278 O.3     1  UNL1       -0.3490
     23 C          59.3305   89.7106    6.3648 C.3     1  UNL1        0.0795
     24 C          60.6315   90.1089    5.7334 C.3     1  UNL1        0.0264
     25 C          60.6751   91.2512    4.7620 C.3     1  UNL1        0.0729
     26 N          59.4176   91.9951    4.4221 N.3     1  UNL1       -0.2689
     27 C          58.1166   91.5968    5.0536 C.3     1  UNL1        0.0729
     28 C          58.0731   90.4546    6.0249 C.3     1  UNL1        0.0264
     29 C          59.4613   93.1373    3.4508 C.3     1  UNL1        0.0992
     30 C          60.2107   92.9953    2.1592 C.ar    1  UNL1       -0.0031
     31 C          61.7054   93.1201    2.1417 C.ar    1  UNL1        0.0178
     32 C          62.4548   92.9781    0.8501 C.ar    1  UNL1        0.0986
     33 N          61.7095   92.7112   -0.4239 N.ar    1  UNL1       -0.2423
     34 C          60.2148   92.5864   -0.4064 C.ar    1  UNL1        0.0986
     35 C          59.4654   92.7284    0.8852 C.ar    1  UNL1        0.0178
@<TRIPOS>BOND
     1    21    22    1
     2    22    20    1
     3    20    19    1
     4    19     9    1
     5     9    10   ar
     6    10    11    2
     7    10    12   ar
     8    12     1    1
     9     1     2    1
    10     2     3    1
    11     3     4    1
    12     4     5   am
    13     5     6    2
    14     5    23    1
    15    23    24    1
    16    24    25    1
    17    25    26    1
    18    26    29    1
    19    29    30    1
    20    30    31   ar
    21    31    32   ar
    22    32    33   ar
    23    33    34   ar
    24    34    35   ar
    25    26    27    1
    26    27    28    1
    27     4     7    1
    28     7     8    1
    29    12    13   ar
    30    13    14   ar
    31    14    15   ar
    32    15    16   ar
    33    16    17   ar
    34    17    18   ar
    35    18     9   ar
    36     8     1    1
    37    18    13   ar
    38    28    23    1
    39    35    30   ar
@<TRIPOS>MOLECULE
*****
 35 39 0 0 0
SMALL
GASTEIGER

@<TRIPOS>ATOM
      1 C          61.9099   88.2837   10.9298 C.3     1  UNL1        0.0933
      2 C          61.9971   89.4538    9.9952 C.3     1  UNL1        0.0442
      3 C          61.1007   89.5230    8.7946 C.3     1  UNL1        0.0953
      4 N          60.1171   88.4223    8.5285 N.am    1  UNL1       -0.2794
      5 C          59.2206   88.4915    7.3278 C.2     1  UNL1        0.2252
      6 O          58.2370   87.3908    7.0617 O.2     1  UNL1       -0.2749
      7 C          60.0299   87.2522    9.4630 C.3     1  UNL1        0.0953
      8 C          60.9264   87.1830   10.6637 C.3     1  UNL1        0.0442
      9 N          64.0792   87.3664   14.0149 N.ar    1  UNL1       -0.2773
     10 C          63.1608   86.9740   12.8958 C.ar    1  UNL1        0.3316
     11 O          62.6810   85.5850   12.5949 O.2     1  UNL1       -0.2463
     12 N          62.8064   88.2144   12.1305 N.ar    1  UNL1       -0.2817
     13 C          63.5058   89.3735   12.7766 C.ar    1  UNL1        0.0796
     14 C          63.5279   90.8384   12.4549 C.ar    1  UNL1        0.0188
     15 C          64.3367   91.7792   13.2979 C.ar    1  UNL1        0.0016
     16 C          65.1234   91.2551   14.4626 C.ar    1  UNL1        0.0016
     17 C          65.1013   89.7902   14.7843 C.ar    1  UNL1        0.0188
     18 C          64.2925   88.8494   13.9413 C.ar    1  UNL1        0.0798
     19 C          64.6792   86.4388   15.0296 C.3     1  UNL1        0.1425
     20 C          63.8108   85.4467   15.7449 C.3     1  UNL1        0.1668
     21 C          62.6434   86.4499   17.8379 C.3     1  UNL1        0.1742
     22 O          62.5647   85.9061   16.4422 O.3     1  UNL1       -0.3490
     23 C          59.3078   89.6616    6.3933 C.3     1  UNL1        0.0795
     24 C          58.0740   90.4444    6.0543 C.3     1  UNL1        0.0264
     25 C          58.1613   91.6145    5.1197 C.3     1  UNL1        0.0729
     26 N          59.4825   92.0018    4.5242 N.3     1  UNL1       -0.2689
     27 C          60.7163   91.2190    4.8632 C.3     1  UNL1        0.0729
     28 C          60.6290   90.0490    5.7977 C.3     1  UNL1        0.0264
     29 C          59.5697   93.1718    3.5897 C.3     1  UNL1        0.0992
     30 C          60.1924   93.0053    2.2354 C.ar    1  UNL1       -0.0031
     31 C          59.3299   92.7079    1.0447 C.ar    1  UNL1        0.0178
     32 C          59.9527   92.5414   -0.3097 C.ar    1  UNL1        0.0986
     33 N          61.4380   92.6721   -0.4734 N.ar    1  UNL1       -0.2423
     34 C          62.3005   92.9694    0.7173 C.ar    1  UNL1        0.0986
     35 C          61.6777   93.1360    2.0716 C.ar    1  UNL1        0.0178
@<TRIPOS>BOND
     1    21    22    1
     2    22    20    1
     3    20    19    1
     4    19     9    1
     5     9    10   ar
     6    10    11    2
     7    10    12   ar
     8    12     1    1
     9     1     2    1
    10     2     3    1
    11     3     4    1
    12     4     5   am
    13     5     6    2
    14     5    23    1
    15    23    24    1
    16    24    25    1
    17    25    26    1
    18    26    29    1
    19    29    30    1
    20    30    31   ar
    21    31    32   ar
    22    32    33   ar
    23    33    34   ar
    24    34    35   ar
    25    26    27    1
    26    27    28    1
    27     4     7    1
    28     7     8    1
    29    12    13   ar
    30    13    14   ar
    31    14    15   ar
    32    15    16   ar
    33    16    17   ar
    34    17    18   ar
    35    18     9   ar
    36     8     1    1
    37    18    13   ar
    38    28    23    1
    39    35    30   ar
@<TRIPOS>MOLECULE
*****
 35 39 0 0 0
SMALL
GASTEIGER

@<TRIPOS>ATOM
      1 C          64.4260   89.9035   14.7361 C.3     1  UNL1        0.0933
      2 C          64.5603   88.5637   14.0747 C.3     1  UNL1        0.0442
      3 C          63.9983   87.3408   14.7369 C.3     1  UNL1        0.0953
      4 N          63.3020   87.4574   16.0604 N.am    1  UNL1       -0.2794
      5 C          62.7401   86.2345   16.7226 C.2     1  UNL1        0.2252
      6 O          62.0438   86.3511   18.0461 O.2     1  UNL1       -0.2749
      7 C          63.1678   88.7971   16.7217 C.3     1  UNL1        0.0953
      8 C          63.7297   90.0201   16.0595 C.3     1  UNL1        0.0442
      9 N          65.4197   92.8829   12.4556 N.ar    1  UNL1       -0.2773
     10 C          64.6175   91.6422   12.7149 C.ar    1  UNL1        0.3316
     11 O          63.6201   91.0256   11.7795 O.2     1  UNL1       -0.2463
     12 N          64.9880   91.1264   14.0738 N.ar    1  UNL1       -0.2817
     13 C          66.0190   92.0483   14.6544 C.ar    1  UNL1        0.0796
     14 C          66.7494   92.0396   15.9645 C.ar    1  UNL1        0.0188
     15 C          67.7466   93.1164   16.2744 C.ar    1  UNL1        0.0016
     16 C          68.0134   94.2019   15.2743 C.ar    1  UNL1        0.0016
     17 C          67.2830   94.2107   13.9641 C.ar    1  UNL1        0.0188
     18 C          66.2859   93.1339   13.6542 C.ar    1  UNL1        0.0798
     19 C          65.3653   93.7248   11.2153 C.3     1  UNL1        0.1425
     20 C          66.4343   93.5925   10.1715 C.3     1  UNL1        0.1668
     21 C          68.6107   92.4171    9.3767 C.3     1  UNL1        0.1742
     22 O          67.7041   92.8590   10.4870 O.3     1  UNL1       -0.3490
     23 C          62.8744   84.8949   16.0613 C.3     1  UNL1        0.0795
     24 C          61.6570   84.1900   15.5407 C.3     1  UNL1        0.0264
     25 C          61.7914   82.8503   14.8793 C.3     1  UNL1        0.0729
     26 N          63.1432   82.2156   14.7386 N.3     1  UNL1       -0.2689
     27 C          64.3606   82.9205   15.2592 C.3     1  UNL1        0.0729
     28 C          64.2262   84.2601   15.9205 C.3     1  UNL1        0.0264
     29 C          63.2775   80.8760   14.0773 C.3     1  UNL1        0.0992
     30 C          63.2231   80.7688   12.5821 C.ar    1  UNL1       -0.0031
     31 C          63.6259   81.9367   11.7313 C.ar    1  UNL1        0.0178
     32 C          63.5715   81.8295   10.2361 C.ar    1  UNL1        0.0986
     33 N          63.1144   80.5545    9.5918 N.ar    1  UNL1       -0.2423
     34 C          62.7116   79.3866   10.4426 C.ar    1  UNL1        0.0986
     35 C          62.7660   79.4938   11.9377 C.ar    1  UNL1        0.0178
@<TRIPOS>BOND
     1    21    22    1
     2    22    20    1
     3    20    19    1
     4    19     9    1
     5     9    10   ar
     6    10    11    2
     7    10    12   ar
     8    12     1    1
     9     1     2    1
    10     2     3    1
    11     3     4    1
    12     4     5   am
    13     5     6    2
    14     5    23    1
    15    23    24    1
    16    24    25    1
    17    25    26    1
    18    26    29    1
    19    29    30    1
    20    30    31   ar
    21    31    32   ar
    22    32    33   ar
    23    33    34   ar
    24    34    35   ar
    25    26    27    1
    26    27    28    1
    27     4     7    1
    28     7     8    1
    29    12    13   ar
    30    13    14   ar
    31    14    15   ar
    32    15    16   ar
    33    16    17   ar
    34    17    18   ar
    35    18     9   ar
    36     8     1    1
    37    18    13   ar
    38    28    23    1
    39    35    30   ar
@<TRIPOS>MOLECULE
*****
 35 39 0 0 0
SMALL
GASTEIGER

@<TRIPOS>ATOM
      1 C          61.1706   92.3379    2.7861 C.3     1  UNL1        0.0933
      2 C          61.7577   91.4939    3.8785 C.3     1  UNL1        0.0442
      3 C          60.8646   90.8881    4.9203 C.3     1  UNL1        0.0953
      4 N          59.3845   91.1263    4.8699 N.am    1  UNL1       -0.2794
      5 C          58.4914   90.5205    5.9117 C.2     1  UNL1        0.2252
      6 O          57.0113   90.7587    5.8612 O.2     1  UNL1       -0.2749
      7 C          58.7975   91.9702    3.7776 C.3     1  UNL1        0.0953
      8 C          59.6906   92.5760    2.7357 C.3     1  UNL1        0.0442
      9 N          63.9677   93.9876    0.6601 N.ar    1  UNL1       -0.2773
     10 C          63.4457   93.4806    1.9718 C.ar    1  UNL1        0.3316
     11 O          64.1773   93.5061    3.2810 O.2     1  UNL1       -0.2463
     12 N          62.0637   92.9437    1.7443 N.ar    1  UNL1       -0.2817
     13 C          61.7316   93.1188    0.2920 C.ar    1  UNL1        0.0796
     14 C          60.5097   92.7742   -0.5067 C.ar    1  UNL1        0.0188
     15 C          60.4645   93.0747   -1.9756 C.ar    1  UNL1        0.0016
     16 C          61.6412   93.7199   -2.6457 C.ar    1  UNL1        0.0016
     17 C          62.8631   94.0646   -1.8469 C.ar    1  UNL1        0.0188
     18 C          62.9083   93.7641   -0.3780 C.ar    1  UNL1        0.0798
     19 C          65.3129   94.6092    0.4274 C.3     1  UNL1        0.1425
     20 C          65.4128   96.0448    0.0045 C.3     1  UNL1        0.1668
     21 C          65.4871   96.7122   -2.5053 C.3     1  UNL1        0.1742
     22 O          66.1985   96.4134   -1.2190 O.3     1  UNL1       -0.3490
     23 C          59.0785   89.6766    7.0040 C.3     1  UNL1        0.0795
     24 C          59.9596   90.3025    8.0440 C.3     1  UNL1        0.0264
     25 C          60.5467   89.4585    9.1364 C.3     1  UNL1        0.0729
     26 N          60.2527   87.9885    9.1885 N.3     1  UNL1       -0.2689
     27 C          59.3716   87.3625    8.1484 C.3     1  UNL1        0.0729
     28 C          58.7845   88.2066    7.0562 C.3     1  UNL1        0.0264
     29 C          60.8398   87.1446   10.2807 C.3     1  UNL1        0.0992
     30 C          61.8106   86.0517    9.9445 C.ar    1  UNL1       -0.0031
     31 C          62.2856   85.1148   11.0154 C.ar    1  UNL1        0.0178
     32 C          63.2564   84.0219   10.6792 C.ar    1  UNL1        0.0986
     33 N          63.7522   83.8658    9.2721 N.ar    1  UNL1       -0.2423
     34 C          63.2772   84.8027    8.2013 C.ar    1  UNL1        0.0986
     35 C          62.3064   85.8956    8.5375 C.ar    1  UNL1        0.0178
@<TRIPOS>BOND
     1    21    22    1
     2    22    20    1
     3    20    19    1
     4    19     9    1
     5     9    10   ar
     6    10    11    2
     7    10    12   ar
     8    12     1    1
     9     1     2    1
    10     2     3    1
    11     3     4    1
    12     4     5   am
    13     5     6    2
    14     5    23    1
    15    23    24    1
    16    24    25    1
    17    25    26    1
    18    26    29    1
    19    29    30    1
    20    30    31   ar
    21    31    32   ar
    22    32    33   ar
    23    33    34   ar
    24    34    35   ar
    25    26    27    1
    26    27    28    1
    27     4     7    1
    28     7     8    1
    29    12    13   ar
    30    13    14   ar
    31    14    15   ar
    32    15    16   ar
    33    16    17   ar
    34    17    18   ar
    35    18     9   ar
    36     8     1    1
    37    18    13   ar
    38    28    23    1
    39    35    30   ar
@<TRIPOS>MOLECULE
*****
 35 39 0 0 0
SMALL
GASTEIGER

@<TRIPOS>ATOM
      1 C          64.5583   90.1307   15.0966 C.3     1  UNL1        0.0933
      2 C          64.7766   88.8048   14.4298 C.3     1  UNL1        0.0442
      3 C          64.1342   87.5697   14.9881 C.3     1  UNL1        0.0953
      4 N          63.2734   87.6604   16.2131 N.am    1  UNL1       -0.2794
      5 C          62.6309   86.4252   16.7715 C.2     1  UNL1        0.2252
      6 O          61.7701   86.5159   17.9965 O.2     1  UNL1       -0.2749
      7 C          63.0550   88.9862   16.8799 C.3     1  UNL1        0.0953
      8 C          63.6975   90.2213   16.3216 C.3     1  UNL1        0.0442
      9 N          66.4921   93.4120   14.3496 N.ar    1  UNL1       -0.2773
     10 C          66.0682   92.3274   15.2951 C.ar    1  UNL1        0.3316
     11 O          66.4455   92.2228   16.7431 O.2     1  UNL1       -0.2463
     12 N          65.2008   91.3658   14.5382 N.ar    1  UNL1       -0.2817
     13 C          65.0885   91.8561   13.1251 C.ar    1  UNL1        0.0796
     14 C          64.3627   91.3143   11.9294 C.ar    1  UNL1        0.0188
     15 C          64.4351   92.0373   10.6171 C.ar    1  UNL1        0.0016
     16 C          65.2332   93.3020   10.5006 C.ar    1  UNL1        0.0016
     17 C          65.9590   93.8437   11.6962 C.ar    1  UNL1        0.0188
     18 C          65.8867   93.1208   13.0085 C.ar    1  UNL1        0.0798
     19 C          67.3678   94.5825   14.6861 C.3     1  UNL1        0.1425
     20 C          68.5425   94.4018   15.6010 C.3     1  UNL1        0.1668
     21 C          69.5570   92.4032   14.2870 C.3     1  UNL1        0.1742
     22 O          69.3155   93.1164   15.5844 O.3     1  UNL1       -0.3490
     23 C          62.8493   85.0995   16.1047 C.3     1  UNL1        0.0795
     24 C          61.6834   84.3420   15.5416 C.3     1  UNL1        0.0264
     25 C          61.9019   83.0162   14.8748 C.3     1  UNL1        0.0729
     26 N          63.2862   82.4479   14.7710 N.3     1  UNL1       -0.2689
     27 C          64.4521   83.2054   15.3341 C.3     1  UNL1        0.0729
     28 C          64.2336   84.5311   16.0009 C.3     1  UNL1        0.0264
     29 C          63.5046   81.1222   14.1042 C.3     1  UNL1        0.0992
     30 C          63.4013   81.0069   12.6123 C.ar    1  UNL1       -0.0031
     31 C          63.8691   82.1331   11.7388 C.ar    1  UNL1        0.0178
     32 C          63.7657   82.0179   10.2469 C.ar    1  UNL1        0.0986
     33 N          63.1946   80.7764    9.6283 N.ar    1  UNL1       -0.2423
     34 C          62.7268   79.6502   10.5017 C.ar    1  UNL1        0.0986
     35 C          62.8301   79.7655   11.9937 C.ar    1  UNL1        0.0178
@<TRIPOS>BOND
     1    21    22    1
     2    22    20    1
     3    20    19    1
     4    19     9    1
     5     9    10   ar
     6    10    11    2
     7    10    12   ar
     8    12     1    1
     9     1     2    1
    10     2     3    1
    11     3     4    1
    12     4     5   am
    13     5     6    2
    14     5    23    1
    15    23    24    1
    16    24    25    1
    17    25    26    1
    18    26    29    1
    19    29    30    1
    20    30    31   ar
    21    31    32   ar
    22    32    33   ar
    23    33    34   ar
    24    34    35   ar
    25    26    27    1
    26    27    28    1
    27     4     7    1
    28     7     8    1
    29    12    13   ar
    30    13    14   ar
    31    14    15   ar
    32    15    16   ar
    33    16    17   ar
    34    17    18   ar
    35    18     9   ar
    36     8     1    1
    37    18    13   ar
    38    28    23    1
    39    35    30   ar
@<TRIPOS>MOLECULE
*****
 35 39 0 0 0
SMALL
GASTEIGER

@<TRIPOS>ATOM
      1 C          60.9015   92.4932    3.1472 C.3     1  UNL1        0.0933
      2 C          61.6113   91.5165    4.0374 C.3     1  UNL1        0.0442
      3 C          60.8359   90.7162    5.0415 C.3     1  UNL1        0.0953
      4 N          59.3506   90.8925    5.1554 N.am    1  UNL1       -0.2794
      5 C          58.5752   90.0922    6.1594 C.2     1  UNL1        0.2252
      6 O          57.0899   90.2685    6.2733 O.2     1  UNL1       -0.2749
      7 C          58.6409   91.8691    4.2652 C.3     1  UNL1        0.0953
      8 C          59.4164   92.6694    3.2611 C.3     1  UNL1        0.0442
      9 N          63.4720   94.0941    0.7193 N.ar    1  UNL1       -0.2773
     10 C          63.1065   93.0667    1.7492 C.ar    1  UNL1        0.3316
     11 O          64.0115   91.9999    2.2903 O.2     1  UNL1       -0.2463
     12 N          61.6770   93.2935    2.1431 N.ar    1  UNL1       -0.2817
     13 C          61.1591   94.4610    1.3566 C.ar    1  UNL1        0.0796
     14 C          59.8206   95.1375    1.3280 C.ar    1  UNL1        0.0188
     15 C          59.5916   96.3088    0.4194 C.ar    1  UNL1        0.0016
     16 C          60.7010   96.8036   -0.4605 C.ar    1  UNL1        0.0016
     17 C          62.0394   96.1272   -0.4319 C.ar    1  UNL1        0.0188
     18 C          62.2685   94.9559    0.4766 C.ar    1  UNL1        0.0798
     19 C          64.8068   94.2351    0.0496 C.3     1  UNL1        0.1425
     20 C          65.4568   95.5832   -0.0511 C.3     1  UNL1        0.1668
     21 C          64.9635   95.7268   -2.5979 C.3     1  UNL1        0.1742
     22 O          65.7403   96.1804   -1.3976 O.3     1  UNL1       -0.3490
     23 C          59.2850   89.1157    7.0496 C.3     1  UNL1        0.0795
     24 C          60.0450   89.6066    8.2460 C.3     1  UNL1        0.0264
     25 C          60.7549   88.6299    9.1362 C.3     1  UNL1        0.0729
     26 N          60.7047   87.1623    8.8299 N.3     1  UNL1       -0.2689
     27 C          59.9446   86.6714    7.6335 C.3     1  UNL1        0.0729
     28 C          59.2348   87.6481    6.7434 C.3     1  UNL1        0.0264
     29 C          61.4145   86.1858    9.7200 C.3     1  UNL1        0.0992
     30 C          62.1551   86.6744   10.9294 C.ar    1  UNL1       -0.0031
     31 C          62.5954   85.7018   11.9830 C.ar    1  UNL1        0.0178
     32 C          63.3361   86.1904   13.1924 C.ar    1  UNL1        0.0986
     33 N          63.6364   87.6518   13.3482 N.ar    1  UNL1       -0.2423
     34 C          63.1961   88.6244   12.2946 C.ar    1  UNL1        0.0986
     35 C          62.4554   88.1358   11.0852 C.ar    1  UNL1        0.0178
@<TRIPOS>BOND
     1    21    22    1
     2    22    20    1
     3    20    19    1
     4    19     9    1
     5     9    10   ar
     6    10    11    2
     7    10    12   ar
     8    12     1    1
     9     1     2    1
    10     2     3    1
    11     3     4    1
    12     4     5   am
    13     5     6    2
    14     5    23    1
    15    23    24    1
    16    24    25    1
    17    25    26    1
    18    26    29    1
    19    29    30    1
    20    30    31   ar
    21    31    32   ar
    22    32    33   ar
    23    33    34   ar
    24    34    35   ar
    25    26    27    1
    26    27    28    1
    27     4     7    1
    28     7     8    1
    29    12    13   ar
    30    13    14   ar
    31    14    15   ar
    32    15    16   ar
    33    16    17   ar
    34    17    18   ar
    35    18     9   ar
    36     8     1    1
    37    18    13   ar
    38    28    23    1
    39    35    30   ar
@<TRIPOS>MOLECULE
*****
 35 39 0 0 0
SMALL
GASTEIGER

@<TRIPOS>ATOM
      1 C          62.6459   85.1577   11.6081 C.3     1  UNL1        0.0933
      2 C          63.5392   85.9179   12.5431 C.3     1  UNL1        0.0442
      3 C          63.4184   87.4092   12.6493 C.3     1  UNL1        0.0953
      4 N          62.4042   88.1404   11.8205 N.am    1  UNL1       -0.2794
      5 C          62.2834   89.6318   11.9267 C.2     1  UNL1        0.2252
      6 O          61.2692   90.3629   11.0979 O.2     1  UNL1       -0.2749
      7 C          61.5110   87.3802   10.8855 C.3     1  UNL1        0.0953
      8 C          61.6318   85.8889   10.7794 C.3     1  UNL1        0.0442
      9 N          63.1971   81.4414   10.6329 N.ar    1  UNL1       -0.2773
     10 C          63.2332   82.9031   10.2978 C.ar    1  UNL1        0.3316
     11 O          63.6606   83.4971    8.9884 O.2     1  UNL1       -0.2463
     12 N          62.7668   83.6663   11.5019 N.ar    1  UNL1       -0.2817
     13 C          62.4424   82.6764   12.5812 C.ar    1  UNL1        0.0796
     14 C          61.9393   82.8495   13.9836 C.ar    1  UNL1        0.0188
     15 C          61.7022   81.6475   14.8490 C.ar    1  UNL1        0.0016
     16 C          61.9681   80.2724   14.3119 C.ar    1  UNL1        0.0016
     17 C          62.4712   80.0993   12.9095 C.ar    1  UNL1        0.0188
     18 C          62.7084   81.3013   12.0441 C.ar    1  UNL1        0.0798
     19 C          63.5821   80.3172    9.7175 C.3     1  UNL1        0.1425
     20 C          62.6476   79.1617    9.5146 C.3     1  UNL1        0.1668
     21 C          63.3809   76.7502   10.1447 C.3     1  UNL1        0.1742
     22 O          62.6502   78.0159   10.4826 O.3     1  UNL1       -0.3490
     23 C          63.1766   90.3918   12.8617 C.3     1  UNL1        0.0795
     24 C          63.1225   90.1219   14.3362 C.3     1  UNL1        0.0264
     25 C          64.0159   90.8820   15.2712 C.3     1  UNL1        0.0729
     26 N          64.9634   91.9121   14.7317 N.3     1  UNL1       -0.2689
     27 C          65.0176   92.1821   13.2572 C.3     1  UNL1        0.0729
     28 C          64.1242   91.4220   12.3222 C.3     1  UNL1        0.0264
     29 C          65.8567   92.6722   15.6667 C.3     1  UNL1        0.0992
     30 C          67.3182   92.8122   15.3598 C.ar    1  UNL1       -0.0031
     31 C          67.9530   91.9387   14.3185 C.ar    1  UNL1        0.0178
     32 C          69.4146   92.0787   14.0116 C.ar    1  UNL1        0.0986
     33 N          70.2414   93.0921   14.7460 N.ar    1  UNL1       -0.2423
     34 C          69.6066   93.9656   15.7872 C.ar    1  UNL1        0.0986
     35 C          68.1451   93.8256   16.0941 C.ar    1  UNL1        0.0178
@<TRIPOS>BOND
     1    21    22    1
     2    22    20    1
     3    20    19    1
     4    19     9    1
     5     9    10   ar
     6    10    11    2
     7    10    12   ar
     8    12     1    1
     9     1     2    1
    10     2     3    1
    11     3     4    1
    12     4     5   am
    13     5     6    2
    14     5    23    1
    15    23    24    1
    16    24    25    1
    17    25    26    1
    18    26    29    1
    19    29    30    1
    20    30    31   ar
    21    31    32   ar
    22    32    33   ar
    23    33    34   ar
    24    34    35   ar
    25    26    27    1
    26    27    28    1
    27     4     7    1
    28     7     8    1
    29    12    13   ar
    30    13    14   ar
    31    14    15   ar
    32    15    16   ar
    33    16    17   ar
    34    17    18   ar
    35    18     9   ar
    36     8     1    1
    37    18    13   ar
    38    28    23    1
    39    35    30   ar
@<TRIPOS>MOLECULE
*****
 35 39 0 0 0
SMALL
GASTEIGER

@<TRIPOS>ATOM
      1 C          59.3701   94.1083   -1.4248 C.3     1  UNL1        0.0933
      2 C          58.6541   93.3344   -0.3577 C.3     1  UNL1        0.0442
      3 C          59.3679   92.9673    0.9094 C.3     1  UNL1        0.0953
      4 N          60.7977   93.3742    1.1097 N.am    1  UNL1       -0.2794
      5 C          61.5115   93.0072    2.3769 C.2     1  UNL1        0.2252
      6 O          62.9413   93.4141    2.5771 O.2     1  UNL1       -0.2749
      7 C          61.5137   94.1482    0.0427 C.3     1  UNL1        0.0953
      8 C          60.7998   94.5152   -1.2245 C.3     1  UNL1        0.0442
      9 N          58.1917   94.9363   -5.0290 N.ar    1  UNL1       -0.2773
     10 C          59.2624   94.5230   -4.0632 C.ar    1  UNL1        0.3316
     11 O          60.6887   94.2120   -4.4081 O.2     1  UNL1       -0.2463
     12 N          58.6563   94.4754   -2.6919 N.ar    1  UNL1       -0.2817
     13 C          57.2110   94.8592   -2.8103 C.ar    1  UNL1        0.0796
     14 C          56.1194   94.9860   -1.7894 C.ar    1  UNL1        0.0188
     15 C          54.7407   95.3978   -2.2129 C.ar    1  UNL1        0.0016
     16 C          54.4535   95.6827   -3.6574 C.ar    1  UNL1        0.0016
     17 C          55.5451   95.5558   -4.6782 C.ar    1  UNL1        0.0188
     18 C          56.9239   95.1440   -4.2547 C.ar    1  UNL1        0.0798
     19 C          58.3593   95.1111   -6.5094 C.3     1  UNL1        0.1425
     20 C          57.5527   94.2763   -7.4593 C.3     1  UNL1        0.1668
     21 C          55.7153   92.4398   -7.4240 C.3     1  UNL1        0.1742
     22 O          57.0897   92.9097   -7.0495 O.3     1  UNL1       -0.3490
     23 C          60.7955   92.2333    3.4437 C.3     1  UNL1        0.0795
     24 C          59.3728   92.5650    3.7841 C.3     1  UNL1        0.0264
     25 C          58.6568   91.7910    4.8511 C.3     1  UNL1        0.0729
     26 N          59.3635   90.6853    5.5776 N.3     1  UNL1       -0.2689
     27 C          60.7862   90.3535    5.2373 C.3     1  UNL1        0.0729
     28 C          61.5022   91.1275    4.1704 C.3     1  UNL1        0.0264
     29 C          58.6475   89.9113    6.6445 C.3     1  UNL1        0.0992
     30 C          59.3931   88.9041    7.4688 C.ar    1  UNL1       -0.0031
     31 C          59.2895   87.4436    7.1427 C.ar    1  UNL1        0.0178
     32 C          60.0351   86.4363    7.9669 C.ar    1  UNL1        0.0986
     33 N          60.8844   86.8895    9.1173 N.ar    1  UNL1       -0.2423
     34 C          60.9880   88.3500    9.4434 C.ar    1  UNL1        0.0986
     35 C          60.2424   89.3573    8.6191 C.ar    1  UNL1        0.0178
@<TRIPOS>BOND
     1    21    22    1
     2    22    20    1
     3    20    19    1
     4    19     9    1
     5     9    10   ar
     6    10    11    2
     7    10    12   ar
     8    12     1    1
     9     1     2    1
    10     2     3    1
    11     3     4    1
    12     4     5   am
    13     5     6    2
    14     5    23    1
    15    23    24    1
    16    24    25    1
    17    25    26    1
    18    26    29    1
    19    29    30    1
    20    30    31   ar
    21    31    32   ar
    22    32    33   ar
    23    33    34   ar
    24    34    35   ar
    25    26    27    1
    26    27    28    1
    27     4     7    1
    28     7     8    1
    29    12    13   ar
    30    13    14   ar
    31    14    15   ar
    32    15    16   ar
    33    16    17   ar
    34    17    18   ar
    35    18     9   ar
    36     8     1    1
    37    18    13   ar
    38    28    23    1
    39    35    30   ar
