@<TRIPOS>MOLECULE
*****
 30 33 0 0 0
SMALL
GASTEIGER

@<TRIPOS>ATOM
      1 N          63.1340   84.5985   13.2951 N.pl3   1  UNL1       -0.2997
      2 C          63.8606   85.1057   14.5055 C.3     1  UNL1        0.1208
      3 C          64.0934   86.5763   14.3241 C.ar    1  UNL1        0.0336
      4 C          64.6863   87.7986   14.9600 C.ar    1  UNL1        0.0990
      5 N          64.4701   88.9559   14.0305 N.ar    1  UNL1       -0.2287
      6 N          63.7436   88.4488   12.8201 N.ar    1  UNL1       -0.1681
      7 C          63.5108   86.9782   13.0015 C.ar    1  UNL1        0.0960
      8 C          62.9179   85.7559   12.3656 C.3     1  UNL1        0.1147
      9 C          61.3501   81.0886   13.7925 C.ar    1  UNL1        0.2259
     10 C          61.7842   82.5043   14.0315 C.ar    1  UNL1        0.0722
     11 C          62.7000   83.1828   13.0562 C.ar    1  UNL1        0.0542
     12 C          63.1815   82.4454   11.8420 C.ar    1  UNL1        0.0295
     13 C          62.7475   81.0296   11.6029 C.ar    1  UNL1        0.0637
     14 C          63.2291   80.2922   10.3887 C.3     1  UNL1        0.0522
     15 N          61.8317   80.3512   12.5782 N.ar    1  UNL1       -0.2160
     16 C          59.0652   79.9770   14.3343 C.3     1  UNL1        0.2542
     17 O          60.4343   80.4101   14.7678 O.3     1  UNL1       -0.4561
     18 C          64.9042   90.3717   14.2695 C.ar    1  UNL1        0.0841
     19 C          64.9626   90.9125   15.6673 C.ar    1  UNL1        0.0192
     20 C          65.3968   92.3283   15.9062 C.ar    1  UNL1        0.0029
     21 C          65.7725   93.2033   14.7472 C.ar    1  UNL1        0.0184
     22 C          65.7140   92.6625   13.3493 C.ar    1  UNL1        0.1072
     23 C          65.2799   91.2467   13.1105 C.ar    1  UNL1        0.0375
     24 S          66.0897   93.5374   12.1903 S.O2    1  UNL1        0.0105
     25 C          66.4654   94.4124   11.0314 C.3     1  UNL1        0.1816
     26 O          65.8292   92.4003   11.2474 O.2     1  UNL1       -0.1686
     27 O          66.3503   94.6746   13.1333 O.2     1  UNL1       -0.1686
     28 C          62.2296   85.7006   11.0340 C.3     1  UNL1        0.0240
     29 C          60.9139   86.3945   10.8403 C.3     1  UNL1        0.0021
     30 C          62.8570   84.9513    9.8960 C.3     1  UNL1        0.0021
@<TRIPOS>BOND
     1    16    17    1
     2    17     9    1
     3     9    10   ar
     4    10    11   ar
     5    11     1    1
     6     1     2    1
     7     2     3    1
     8     3     4   ar
     9     4     5   ar
    10     5    18    1
    11    18    19   ar
    12    19    20   ar
    13    20    21   ar
    14    21    22   ar
    15    22    24    1
    16    24    25    1
    17    24    26    2
    18    24    27    2
    19    22    23   ar
    20     5     6   ar
    21     6     7   ar
    22     7     8    1
    23     8    28    1
    24    28    29    1
    25    28    30    1
    26    11    12   ar
    27    12    13   ar
    28    13    14    1
    29    13    15   ar
    30    15     9   ar
    31     8     1    1
    32     7     3   ar
    33    23    18   ar
@<TRIPOS>MOLECULE
*****
 30 33 0 0 0
SMALL
GASTEIGER

@<TRIPOS>ATOM
      1 N          63.2091   84.5760   13.1237 N.pl3   1  UNL1       -0.2997
      2 C          63.9547   85.0493   14.3362 C.3     1  UNL1        0.1208
      3 C          64.1441   86.5323   14.2145 C.ar    1  UNL1        0.0336
      4 C          64.7219   87.7412   14.8886 C.ar    1  UNL1        0.0990
      5 N          64.4505   88.9318   14.0174 N.ar    1  UNL1       -0.2287
      6 N          63.7049   88.4586   12.8049 N.ar    1  UNL1       -0.1681
      7 C          63.5155   86.9756   12.9267 C.ar    1  UNL1        0.0960
      8 C          62.9377   85.7666   12.2525 C.3     1  UNL1        0.1147
      9 C          62.8991   81.0636   11.3027 C.ar    1  UNL1        0.2259
     10 C          63.3025   82.4788   11.5930 C.ar    1  UNL1        0.0722
     11 C          62.8058   83.1608   12.8333 C.ar    1  UNL1        0.0542
     12 C          61.9058   82.4275   13.7832 C.ar    1  UNL1        0.0295
     13 C          61.5024   81.0122   13.4928 C.ar    1  UNL1        0.0637
     14 C          60.6024   80.2788   14.4427 C.3     1  UNL1        0.0522
     15 N          61.9991   80.3302   12.2526 N.ar    1  UNL1       -0.2160
     16 C          62.8267   79.0541    9.6575 C.3     1  UNL1        0.2542
     17 O          63.3958   80.3815   10.0624 O.3     1  UNL1       -0.4561
     18 C          64.8538   90.3471   14.3078 C.ar    1  UNL1        0.0841
     19 C          64.8062   90.8670   15.7140 C.ar    1  UNL1        0.0192
     20 C          65.2096   92.2824   16.0042 C.ar    1  UNL1        0.0029
     21 C          65.6605   93.1777   14.8884 C.ar    1  UNL1        0.0184
     22 C          65.7081   92.6577   13.4822 C.ar    1  UNL1        0.1072
     23 C          65.3048   91.2424   13.1920 C.ar    1  UNL1        0.0375
     24 S          66.1591   93.5529   12.3664 S.O2    1  UNL1        0.0105
     25 C          66.6100   94.4482   11.2506 C.3     1  UNL1        0.1816
     26 O          66.0199   92.4160   11.3979 O.2     1  UNL1       -0.1686
     27 O          66.2983   94.6899   13.3349 O.2     1  UNL1       -0.1686
     28 C          62.2153   85.7509   10.9380 C.3     1  UNL1        0.0240
     29 C          62.7942   85.0042    9.7729 C.3     1  UNL1        0.0021
     30 C          60.9141   86.4819   10.7886 C.3     1  UNL1        0.0021
@<TRIPOS>BOND
     1    16    17    1
     2    17     9    1
     3     9    10   ar
     4    10    11   ar
     5    11     1    1
     6     1     2    1
     7     2     3    1
     8     3     4   ar
     9     4     5   ar
    10     5    18    1
    11    18    19   ar
    12    19    20   ar
    13    20    21   ar
    14    21    22   ar
    15    22    24    1
    16    24    25    1
    17    24    26    2
    18    24    27    2
    19    22    23   ar
    20     5     6   ar
    21     6     7   ar
    22     7     8    1
    23     8    28    1
    24    28    29    1
    25    28    30    1
    26    11    12   ar
    27    12    13   ar
    28    13    14    1
    29    13    15   ar
    30    15     9   ar
    31     8     1    1
    32     7     3   ar
    33    23    18   ar
@<TRIPOS>MOLECULE
*****
 30 33 0 0 0
SMALL
GASTEIGER

@<TRIPOS>ATOM
      1 N          64.3685   89.1012   14.2928 N.pl3   1  UNL1       -0.2997
      2 C          65.4429   90.0521   14.7308 C.3     1  UNL1        0.1208
      3 C          65.4834   91.1883   13.7524 C.ar    1  UNL1        0.0336
      4 C          66.1724   92.4782   13.4185 C.ar    1  UNL1        0.0990
      5 N          65.5490   93.0268   12.1694 N.ar    1  UNL1       -0.2287
      6 N          64.4747   92.0761   11.7313 N.ar    1  UNL1       -0.1681
      7 C          64.4341   90.9398   12.7097 C.ar    1  UNL1        0.0960
      8 C          63.7451   89.6500   13.0436 C.3     1  UNL1        0.1147
      9 C          63.7656   85.2371   14.9666 C.ar    1  UNL1        0.2259
     10 C          64.1492   86.5125   14.2767 C.ar    1  UNL1        0.0722
     11 C          63.9850   87.8258   14.9827 C.ar    1  UNL1        0.0542
     12 C          63.4373   87.8635   16.3786 C.ar    1  UNL1        0.0295
     13 C          63.0537   86.5880   17.0686 C.ar    1  UNL1        0.0637
     14 C          62.5060   86.6257   18.4645 C.3     1  UNL1        0.0522
     15 N          63.2179   85.2748   16.3626 N.ar    1  UNL1       -0.2160
     16 C          63.0458   83.5816   13.0981 C.3     1  UNL1        0.2542
     17 O          63.9298   83.9237   14.2606 O.3     1  UNL1       -0.4561
     18 C          65.9325   94.3023   11.4795 C.ar    1  UNL1        0.0841
     19 C          66.3637   95.4911   12.2863 C.ar    1  UNL1        0.0192
     20 C          66.7473   96.7666   11.5962 C.ar    1  UNL1        0.0029
     21 C          66.6996   96.8533   10.0995 C.ar    1  UNL1        0.0184
     22 C          66.2684   95.6646    9.2927 C.ar    1  UNL1        0.1072
     23 C          65.8849   94.3891    9.9828 C.ar    1  UNL1        0.0375
     24 S          66.2207   95.7512    7.7960 S.O2    1  UNL1        0.0105
     25 C          66.1731   95.8378    6.2993 C.3     1  UNL1        0.1816
     26 O          65.1218   96.7679    7.8898 O.2     1  UNL1       -0.1686
     27 O          67.3196   94.7345    7.7022 O.2     1  UNL1       -0.1686
     28 C          62.6287   89.0195   12.2651 C.3     1  UNL1        0.0240
     29 C          62.8039   87.6504   11.6775 C.3     1  UNL1        0.0021
     30 C          61.3371   89.7579   12.0741 C.3     1  UNL1        0.0021
@<TRIPOS>BOND
     1    16    17    1
     2    17     9    1
     3     9    10   ar
     4    10    11   ar
     5    11     1    1
     6     1     2    1
     7     2     3    1
     8     3     4   ar
     9     4     5   ar
    10     5    18    1
    11    18    19   ar
    12    19    20   ar
    13    20    21   ar
    14    21    22   ar
    15    22    24    1
    16    24    25    1
    17    24    26    2
    18    24    27    2
    19    22    23   ar
    20     5     6   ar
    21     6     7   ar
    22     7     8    1
    23     8    28    1
    24    28    29    1
    25    28    30    1
    26    11    12   ar
    27    12    13   ar
    28    13    14    1
    29    13    15   ar
    30    15     9   ar
    31     8     1    1
    32     7     3   ar
    33    23    18   ar
@<TRIPOS>MOLECULE
*****
 30 33 0 0 0
SMALL
GASTEIGER

@<TRIPOS>ATOM
      1 N          64.4020   88.9714   13.6556 N.pl3   1  UNL1       -0.2997
      2 C          64.9382   87.8513   14.4971 C.3     1  UNL1        0.1208
      3 C          64.2311   86.5907   14.0959 C.ar    1  UNL1        0.0336
      4 C          64.1256   85.1194   14.3681 C.ar    1  UNL1        0.0990
      5 N          63.0872   84.5510   13.4468 N.ar    1  UNL1       -0.2287
      6 N          62.5510   85.6710   12.6053 N.ar    1  UNL1       -0.1681
      7 C          63.2580   86.9316   13.0065 C.ar    1  UNL1        0.0960
      8 C          63.3636   88.4030   12.7343 C.3     1  UNL1        0.1147
      9 C          65.2548   92.6863   12.5502 C.ar    1  UNL1        0.2259
     10 C          64.8276   91.2501   12.4823 C.ar    1  UNL1        0.0722
     11 C          64.8292   90.4076   13.7235 C.ar    1  UNL1        0.0542
     12 C          65.2580   91.0015   15.0324 C.ar    1  UNL1        0.0295
     13 C          65.6853   92.4378   15.1003 C.ar    1  UNL1        0.0637
     14 C          66.1141   93.0318   16.4093 C.3     1  UNL1        0.0522
     15 N          65.6837   93.2802   13.8592 N.ar    1  UNL1       -0.2160
     16 C          66.0558   94.7951   11.2612 C.3     1  UNL1        0.2542
     17 O          65.2532   93.5287   11.3090 O.3     1  UNL1       -0.4561
     18 C          62.6600   83.1147   13.3789 C.ar    1  UNL1        0.0841
     19 C          61.9130   82.4995   14.5250 C.ar    1  UNL1        0.0192
     20 C          61.4858   81.0632   14.4570 C.ar    1  UNL1        0.0029
     21 C          61.8055   80.2421   13.2431 C.ar    1  UNL1        0.0184
     22 C          62.5525   80.8574   12.0971 C.ar    1  UNL1        0.1072
     23 C          62.9797   82.2937   12.1650 C.ar    1  UNL1        0.0375
     24 S          62.8724   80.0364   10.8831 S.O2    1  UNL1        0.0105
     25 C          63.1922   79.2156    9.6691 C.3     1  UNL1        0.1816
     26 O          62.4850   78.7907   11.6234 O.2     1  UNL1       -0.1686
     27 O          63.2597   81.2823   10.1427 O.2     1  UNL1       -0.1686
     28 C          62.5702   89.1710   11.7192 C.3     1  UNL1        0.0240
     29 C          61.4628   90.0798   12.1641 C.3     1  UNL1        0.0021
     30 C          62.8840   89.0303   10.2592 C.3     1  UNL1        0.0021
@<TRIPOS>BOND
     1    16    17    1
     2    17     9    1
     3     9    10   ar
     4    10    11   ar
     5    11     1    1
     6     1     2    1
     7     2     3    1
     8     3     4   ar
     9     4     5   ar
    10     5    18    1
    11    18    19   ar
    12    19    20   ar
    13    20    21   ar
    14    21    22   ar
    15    22    24    1
    16    24    25    1
    17    24    26    2
    18    24    27    2
    19    22    23   ar
    20     5     6   ar
    21     6     7   ar
    22     7     8    1
    23     8    28    1
    24    28    29    1
    25    28    30    1
    26    11    12   ar
    27    12    13   ar
    28    13    14    1
    29    13    15   ar
    30    15     9   ar
    31     8     1    1
    32     7     3   ar
    33    23    18   ar
@<TRIPOS>MOLECULE
*****
 30 33 0 0 0
SMALL
GASTEIGER

@<TRIPOS>ATOM
      1 N          61.6149   86.2739   10.4711 N.pl3   1  UNL1       -0.2997
      2 C          60.9953   85.8643    9.1679 C.3     1  UNL1        0.1208
      3 C          60.5555   87.1073    8.4527 C.ar    1  UNL1        0.0336
      4 C          59.9008   87.6223    7.2053 C.ar    1  UNL1        0.0990
      5 N          59.8439   89.1185    7.2955 N.ar    1  UNL1       -0.2287
      6 N          60.4634   89.5282    8.5987 N.ar    1  UNL1       -0.1681
      7 C          60.9032   88.2852    9.3139 C.ar    1  UNL1        0.0960
      8 C          61.5580   87.7702   10.5613 C.3     1  UNL1        0.1147
      9 C          62.5052   84.6720   13.9912 C.ar    1  UNL1        0.2259
     10 C          61.9297   85.5962   12.9594 C.ar    1  UNL1        0.0722
     11 C          62.1903   85.3497   11.5029 C.ar    1  UNL1        0.0542
     12 C          63.0263   84.1790   11.0782 C.ar    1  UNL1        0.0295
     13 C          63.6018   83.2547   12.1100 C.ar    1  UNL1        0.0637
     14 C          64.4378   82.0839   11.6854 C.3     1  UNL1        0.0522
     15 N          63.3412   83.5012   13.5665 N.ar    1  UNL1       -0.2160
     16 C          63.2830   85.5973   16.2909 C.3     1  UNL1        0.2542
     17 O          62.2446   84.9185   15.4477 O.3     1  UNL1       -0.4561
     18 C          59.2684   90.0428    6.2638 C.ar    1  UNL1        0.0841
     19 C          57.7836   90.2356    6.1742 C.ar    1  UNL1        0.0192
     20 C          57.2082   91.1599    5.1424 C.ar    1  UNL1        0.0029
     21 C          58.1176   91.8914    4.2001 C.ar    1  UNL1        0.0184
     22 C          59.6025   91.6986    4.2897 C.ar    1  UNL1        0.1072
     23 C          60.1778   90.7743    5.3215 C.ar    1  UNL1        0.0375
     24 S          60.5120   92.4301    3.3475 S.O2    1  UNL1        0.0105
     25 C          61.4215   93.1615    2.4053 C.3     1  UNL1        0.1816
     26 O          59.3241   93.0931    2.7155 O.2     1  UNL1       -0.1686
     27 O          61.6999   91.7670    3.9795 O.2     1  UNL1       -0.1686
     28 C          62.0665   88.6048   11.6992 C.3     1  UNL1        0.0240
     29 C          63.4221   88.3333   12.2812 C.3     1  UNL1        0.0021
     30 C          61.2195   89.7110   12.2551 C.3     1  UNL1        0.0021
@<TRIPOS>BOND
     1    16    17    1
     2    17     9    1
     3     9    10   ar
     4    10    11   ar
     5    11     1    1
     6     1     2    1
     7     2     3    1
     8     3     4   ar
     9     4     5   ar
    10     5    18    1
    11    18    19   ar
    12    19    20   ar
    13    20    21   ar
    14    21    22   ar
    15    22    24    1
    16    24    25    1
    17    24    26    2
    18    24    27    2
    19    22    23   ar
    20     5     6   ar
    21     6     7   ar
    22     7     8    1
    23     8    28    1
    24    28    29    1
    25    28    30    1
    26    11    12   ar
    27    12    13   ar
    28    13    14    1
    29    13    15   ar
    30    15     9   ar
    31     8     1    1
    32     7     3   ar
    33    23    18   ar
@<TRIPOS>MOLECULE
*****
 30 33 0 0 0
SMALL
GASTEIGER

@<TRIPOS>ATOM
      1 N          61.7959   86.3234   10.7429 N.pl3   1  UNL1       -0.2997
      2 C          60.9678   87.5496   10.9895 C.3     1  UNL1        0.1208
      3 C          60.5797   88.1223    9.6586 C.ar    1  UNL1        0.0336
      4 C          59.8280   89.2341    8.9886 C.ar    1  UNL1        0.0990
      5 N          59.9517   89.0490    7.5052 N.ar    1  UNL1       -0.2287
      6 N          60.7797   87.8228    7.2584 N.ar    1  UNL1       -0.1681
      7 C          61.1679   87.2501    8.5894 C.ar    1  UNL1        0.0960
      8 C          61.9195   86.1383    9.2594 C.3     1  UNL1        0.1147
      9 C          62.6663   83.0888   12.8710 C.ar    1  UNL1        0.2259
     10 C          62.0671   83.9743   11.8190 C.ar    1  UNL1        0.0722
     11 C          62.3951   85.4379   11.7948 C.ar    1  UNL1        0.0542
     12 C          63.3223   86.0158   12.8225 C.ar    1  UNL1        0.0295
     13 C          63.9216   85.1302   13.8746 C.ar    1  UNL1        0.0637
     14 C          64.8488   85.7081   14.9023 C.3     1  UNL1        0.0522
     15 N          63.5936   83.6667   13.8988 N.ar    1  UNL1       -0.2160
     16 C          61.5506   81.0520   14.0358 C.3     1  UNL1        0.2542
     17 O          62.3384   81.6252   12.8952 O.3     1  UNL1       -0.4561
     18 C          59.3524   89.9346    6.4532 C.ar    1  UNL1        0.0841
     19 C          57.8626   90.0770    6.3522 C.ar    1  UNL1        0.0192
     20 C          57.2635   90.9626    5.3002 C.ar    1  UNL1        0.0029
     21 C          58.1541   91.7057    4.3491 C.ar    1  UNL1        0.0184
     22 C          59.6439   91.5633    4.4501 C.ar    1  UNL1        0.1072
     23 C          60.2430   90.6777    5.5021 C.ar    1  UNL1        0.0375
     24 S          60.5345   92.3065    3.4990 S.O2    1  UNL1        0.0105
     25 C          61.4251   93.0496    2.5480 C.3     1  UNL1        0.1816
     26 O          61.7341   91.6305    4.0941 O.2     1  UNL1       -0.1686
     27 O          59.3349   92.9825    2.9039 O.2     1  UNL1       -0.1686
     28 C          62.6640   85.0352    8.5675 C.3     1  UNL1        0.0240
     29 C          62.3767   84.7239    7.1285 C.3     1  UNL1        0.0021
     30 C          63.6959   84.2432    9.3146 C.3     1  UNL1        0.0021
@<TRIPOS>BOND
     1    16    17    1
     2    17     9    1
     3     9    10   ar
     4    10    11   ar
     5    11     1    1
     6     1     2    1
     7     2     3    1
     8     3     4   ar
     9     4     5   ar
    10     5    18    1
    11    18    19   ar
    12    19    20   ar
    13    20    21   ar
    14    21    22   ar
    15    22    24    1
    16    24    25    1
    17    24    26    2
    18    24    27    2
    19    22    23   ar
    20     5     6   ar
    21     6     7   ar
    22     7     8    1
    23     8    28    1
    24    28    29    1
    25    28    30    1
    26    11    12   ar
    27    12    13   ar
    28    13    14    1
    29    13    15   ar
    30    15     9   ar
    31     8     1    1
    32     7     3   ar
    33    23    18   ar
@<TRIPOS>MOLECULE
*****
 30 33 0 0 0
SMALL
GASTEIGER

@<TRIPOS>ATOM
      1 N          62.1977   87.8539   10.3568 N.pl3   1  UNL1       -0.2997
      2 C          62.3993   89.3403   10.3598 C.3     1  UNL1        0.1208
      3 C          63.0690   89.7148   11.6487 C.ar    1  UNL1        0.0336
      4 C          63.6075   90.8648   12.4470 C.ar    1  UNL1        0.0990
      5 N          64.1527   90.3206   13.7341 N.ar    1  UNL1       -0.2287
      6 N          63.9511   88.8342   13.7312 N.ar    1  UNL1       -0.1681
      7 C          63.2814   88.4598   12.4423 C.ar    1  UNL1        0.0960
      8 C          62.7429   87.3097   11.6440 C.3     1  UNL1        0.1147
      9 C          61.7607   85.3144    7.3387 C.ar    1  UNL1        0.2259
     10 C          62.3959   86.1158    8.4359 C.ar    1  UNL1        0.0722
     11 C          61.5625   87.0525    9.2596 C.ar    1  UNL1        0.0542
     12 C          60.0939   87.1875    8.9858 C.ar    1  UNL1        0.0295
     13 C          59.4586   86.3861    7.8884 C.ar    1  UNL1        0.0637
     14 C          57.9901   86.5212    7.6146 C.3     1  UNL1        0.0522
     15 N          60.2921   85.4495    7.0649 N.ar    1  UNL1       -0.2160
     16 C          62.2527   84.1402    5.0739 C.3     1  UNL1        0.2542
     17 O          62.5941   84.3777    6.5150 O.3     1  UNL1       -0.4561
     18 C          64.7879   91.1221   14.8314 C.ar    1  UNL1        0.0841
     19 C          64.0296   91.3944   16.0967 C.ar    1  UNL1        0.0192
     20 C          64.6649   92.1959   17.1940 C.ar    1  UNL1        0.0029
     21 C          66.0584   92.7250   17.0261 C.ar    1  UNL1        0.0184
     22 C          66.8167   92.4526   15.7609 C.ar    1  UNL1        0.1072
     23 C          66.1814   91.6511   14.6636 C.ar    1  UNL1        0.0375
     24 S          68.2102   92.9816   15.5930 S.O2    1  UNL1        0.0105
     25 C          69.6037   93.5106   15.4251 C.3     1  UNL1        0.1816
     26 O          67.7273   93.9138   14.5215 O.2     1  UNL1       -0.1686
     27 O          68.6931   92.0495   16.6645 O.2     1  UNL1       -0.1686
     28 C          62.7486   85.8685   12.0597 C.3     1  UNL1        0.0240
     29 C          63.5179   85.4414   13.2746 C.3     1  UNL1        0.0021
     30 C          61.9851   84.8544   11.2606 C.3     1  UNL1        0.0021
@<TRIPOS>BOND
     1    16    17    1
     2    17     9    1
     3     9    10   ar
     4    10    11   ar
     5    11     1    1
     6     1     2    1
     7     2     3    1
     8     3     4   ar
     9     4     5   ar
    10     5    18    1
    11    18    19   ar
    12    19    20   ar
    13    20    21   ar
    14    21    22   ar
    15    22    24    1
    16    24    25    1
    17    24    26    2
    18    24    27    2
    19    22    23   ar
    20     5     6   ar
    21     6     7   ar
    22     7     8    1
    23     8    28    1
    24    28    29    1
    25    28    30    1
    26    11    12   ar
    27    12    13   ar
    28    13    14    1
    29    13    15   ar
    30    15     9   ar
    31     8     1    1
    32     7     3   ar
    33    23    18   ar
@<TRIPOS>MOLECULE
*****
 30 33 0 0 0
SMALL
GASTEIGER

@<TRIPOS>ATOM
      1 N          64.3796   90.6281   13.4518 N.pl3   1  UNL1       -0.2997
      2 C          63.9908   91.0998   12.0819 C.3     1  UNL1        0.1208
      3 C          63.2134   90.0026   11.4172 C.ar    1  UNL1        0.0336
      4 C          62.4927   89.6161   10.1597 C.ar    1  UNL1        0.0990
      5 N          61.9557   88.2273   10.3415 N.ar    1  UNL1       -0.2287
      6 N          62.3446   87.7556   11.7113 N.ar    1  UNL1       -0.1681
      7 C          63.1219   88.8528   12.3761 C.ar    1  UNL1        0.0960
      8 C          63.8426   89.2394   13.6335 C.3     1  UNL1        0.1147
      9 C          67.3859   92.5426   15.1971 C.ar    1  UNL1        0.2259
     10 C          66.5984   91.7626   14.1866 C.ar    1  UNL1        0.0722
     11 C          65.1671   91.4082   14.4623 C.ar    1  UNL1        0.0542
     12 C          64.5235   91.8338   15.7486 C.ar    1  UNL1        0.0295
     13 C          65.3111   92.6139   16.7592 C.ar    1  UNL1        0.0637
     14 C          64.6675   93.0396   18.0455 C.3     1  UNL1        0.0522
     15 N          66.7423   92.9683   16.4835 N.ar    1  UNL1       -0.2160
     16 C          69.5278   93.8843   15.7991 C.3     1  UNL1        0.2542
     17 O          68.8172   92.8971   14.9214 O.3     1  UNL1       -0.4561
     18 C          61.1682   87.4473    9.3310 C.ar    1  UNL1        0.0841
     19 C          59.6861   87.6483    9.2176 C.ar    1  UNL1        0.0192
     20 C          58.8985   86.8682    8.2070 C.ar    1  UNL1        0.0029
     21 C          59.5931   85.8870    7.3098 C.ar    1  UNL1        0.0184
     22 C          61.0752   85.6859    7.4233 C.ar    1  UNL1        0.1072
     23 C          61.8627   86.4661    8.4339 C.ar    1  UNL1        0.0375
     24 S          61.7698   84.7048    6.5262 S.O2    1  UNL1        0.0105
     25 C          62.4644   83.7236    5.6290 C.3     1  UNL1        0.1816
     26 O          63.0718   85.0017    7.2094 O.2     1  UNL1       -0.1686
     27 O          60.4678   84.4078    5.8429 O.2     1  UNL1       -0.1686
     28 C          63.9988   88.3869   14.8578 C.3     1  UNL1        0.0240
     29 C          64.7284   87.0789   14.7729 C.3     1  UNL1        0.0021
     30 C          63.4256   88.8422   16.1670 C.3     1  UNL1        0.0021
@<TRIPOS>BOND
     1    16    17    1
     2    17     9    1
     3     9    10   ar
     4    10    11   ar
     5    11     1    1
     6     1     2    1
     7     2     3    1
     8     3     4   ar
     9     4     5   ar
    10     5    18    1
    11    18    19   ar
    12    19    20   ar
    13    20    21   ar
    14    21    22   ar
    15    22    24    1
    16    24    25    1
    17    24    26    2
    18    24    27    2
    19    22    23   ar
    20     5     6   ar
    21     6     7   ar
    22     7     8    1
    23     8    28    1
    24    28    29    1
    25    28    30    1
    26    11    12   ar
    27    12    13   ar
    28    13    14    1
    29    13    15   ar
    30    15     9   ar
    31     8     1    1
    32     7     3   ar
    33    23    18   ar
@<TRIPOS>MOLECULE
*****
 30 33 0 0 0
SMALL
GASTEIGER

@<TRIPOS>ATOM
      1 N          64.3187   90.5602   13.5837 N.pl3   1  UNL1       -0.2997
      2 C          63.9120   91.0685   12.2323 C.3     1  UNL1        0.1208
      3 C          63.1635   89.9737   11.5312 C.ar    1  UNL1        0.0336
      4 C          62.4497   89.6113   10.2628 C.ar    1  UNL1        0.0990
      5 N          61.9526   88.2025   10.3970 N.ar    1  UNL1       -0.2287
      6 N          62.3593   87.6942   11.7484 N.ar    1  UNL1       -0.1681
      7 C          63.1077   88.7889   12.4494 C.ar    1  UNL1        0.0960
      8 C          63.8215   89.1513   13.7179 C.3     1  UNL1        0.1147
      9 C          65.1360   92.7211   16.8105 C.ar    1  UNL1        0.2259
     10 C          64.3673   91.9550   15.7751 C.ar    1  UNL1        0.0722
     11 C          65.0874   91.3262   14.6191 C.ar    1  UNL1        0.0542
     12 C          66.5762   91.4636   14.4986 C.ar    1  UNL1        0.0295
     13 C          67.3450   92.2297   15.5341 C.ar    1  UNL1        0.0637
     14 C          68.8339   92.3670   15.4136 C.3     1  UNL1        0.0522
     15 N          66.6250   92.8584   16.6900 N.ar    1  UNL1       -0.2160
     16 C          63.1181   94.0671   17.7410 C.3     1  UNL1        0.2542
     17 O          64.4160   93.3498   17.9665 O.3     1  UNL1       -0.4561
     18 C          61.1838   87.4364    9.3615 C.ar    1  UNL1        0.0841
     19 C          59.7081   87.6564    9.2079 C.ar    1  UNL1        0.0192
     20 C          58.9393   86.8903    8.1725 C.ar    1  UNL1        0.0029
     21 C          59.6464   85.9041    7.2906 C.ar    1  UNL1        0.0184
     22 C          61.1222   85.6841    7.4442 C.ar    1  UNL1        0.1072
     23 C          61.8909   86.4502    8.4797 C.ar    1  UNL1        0.0375
     24 S          61.8292   84.6980    6.5625 S.O2    1  UNL1        0.0105
     25 C          62.5364   83.7118    5.6808 C.3     1  UNL1        0.1816
     26 O          60.5659   84.4908    5.7809 O.2     1  UNL1       -0.1686
     27 O          63.0927   84.9051    7.3442 O.2     1  UNL1       -0.1686
     28 C          64.0059   88.2611   14.9110 C.3     1  UNL1        0.0240
     29 C          64.7287   86.9546   14.7674 C.3     1  UNL1        0.0021
     30 C          63.4676   88.6775   16.2477 C.3     1  UNL1        0.0021
@<TRIPOS>BOND
     1    16    17    1
     2    17     9    1
     3     9    10   ar
     4    10    11   ar
     5    11     1    1
     6     1     2    1
     7     2     3    1
     8     3     4   ar
     9     4     5   ar
    10     5    18    1
    11    18    19   ar
    12    19    20   ar
    13    20    21   ar
    14    21    22   ar
    15    22    24    1
    16    24    25    1
    17    24    26    2
    18    24    27    2
    19    22    23   ar
    20     5     6   ar
    21     6     7   ar
    22     7     8    1
    23     8    28    1
    24    28    29    1
    25    28    30    1
    26    11    12   ar
    27    12    13   ar
    28    13    14    1
    29    13    15   ar
    30    15     9   ar
    31     8     1    1
    32     7     3   ar
    33    23    18   ar
