@<TRIPOS>MOLECULE
*****
 44 47 0 0 0
SMALL
GASTEIGER

@<TRIPOS>ATOM
      1 C          63.8381   90.9604   13.4724 C.2     1  UNL1        0.2248
      2 O          63.1310   91.9442   12.5880 O.2     1  UNL1       -0.2749
      3 N          63.6892   89.4883   13.2259 N.am    1  UNL1       -0.2774
      4 C          64.3317   88.3916   14.0223 C.3     1  UNL1        0.0956
      5 C          63.9113   87.0800   13.4282 C.3     1  UNL1        0.0497
      6 C          63.0089   87.3661   12.2647 C.3     1  UNL1        0.1533
      7 C          62.8716   88.8546   12.1396 C.3     1  UNL1        0.1198
      8 C          64.6940   91.4487   14.6034 C.3     1  UNL1        0.0691
      9 C          65.6028   91.7373   13.4455 C.3     1  UNL1        0.0090
     10 C          66.9487   92.3552   13.6843 C.3     1  UNL1        0.0060
     11 C          67.3857   92.6843   15.0809 C.3     1  UNL1        0.0366
     12 C          66.4769   92.3955   16.2388 C.3     1  UNL1        0.0060
     13 C          65.1311   91.7778   16.0000 C.3     1  UNL1        0.0090
     14 C          68.7315   93.3021   15.3197 C.2     1  UNL1        0.0500
     15 O          68.8837   94.4014   16.3288 O.co2   1  UNL1       -0.5492
     16 O          69.9252   92.8206   14.5495 O.co2   1  UNL1       -0.5492
     17 C          63.6440   90.4393   16.7548 C.3     1  UNL1        0.0005
     18 C          63.4880   90.9904   15.3685 C.3     1  UNL1        0.0086
     19 C          62.9552   85.8721   12.1411 C.ar    1  UNL1       -0.0005
     20 C          62.4829   85.0405   13.2966 C.ar    1  UNL1       -0.0029
     21 C          62.4292   83.5466   13.1729 C.ar    1  UNL1       -0.0015
     22 C          62.8477   82.8843   11.8938 C.ar    1  UNL1        0.0235
     23 C          63.3200   83.7160   10.7382 C.ar    1  UNL1       -0.0015
     24 C          63.3737   85.2099   10.8619 C.ar    1  UNL1       -0.0029
     25 C          62.7940   81.3903   11.7701 C.3     1  UNL1        0.3242
     26 F          63.3333   81.4865   10.3738 F       1  UNL1       -0.2176
     27 C          62.7402   79.8965   11.6465 C.3     1  UNL1        0.4363
     28 F          62.6865   78.4025   11.5229 F       1  UNL1       -0.1666
     29 F          62.7720   80.0190   10.1519 F       1  UNL1       -0.1666
     30 F          62.7178   79.7171   12.5136 F       1  UNL1       -0.1666
     31 C          62.2546   81.2942   13.1665 C.3     1  UNL1        0.4363
     32 F          61.7153   81.1980   14.5629 F       1  UNL1       -0.1666
     33 F          61.3956   81.3229   12.9527 F       1  UNL1       -0.1666
     34 F          63.4821   81.2118   14.0248 F       1  UNL1       -0.1666
     35 S          62.0953   87.3399   11.0753 S.O2    1  UNL1        0.0106
     36 O          61.0727   86.5500   11.4662 O.2     1  UNL1       -0.1684
     37 O          63.0384   88.2380   10.3311 O.2     1  UNL1       -0.1684
     38 C          61.1817   87.3137    9.8859 C.ar    1  UNL1        0.1061
     39 C          60.9806   86.0383    9.1225 C.ar    1  UNL1        0.0207
     40 C          60.0670   86.0121    7.9331 C.ar    1  UNL1        0.0310
     41 C          59.3545   87.2614    7.5071 C.ar    1  UNL1        0.1402
     42 F          58.4409   87.2353    6.3177 F       1  UNL1       -0.2042
     43 C          59.5556   88.5369    8.2705 C.ar    1  UNL1        0.0310
     44 C          60.4692   88.5631    9.4598 C.ar    1  UNL1        0.0207
@<TRIPOS>UNITY_ATOM_ATTR
15 1
charge -1
@<TRIPOS>BOND
     1    17    18    1
     2     8    18    1
     3     8     1    1
     4     1     2    2
     5     1     3   am
     6     3     4    1
     7     4     5    1
     8     5     6    1
     9     6    19    1
    10    19    20   ar
    11    20    21   ar
    12    21    22   ar
    13    22    25    1
    14    25    26    1
    15    25    27    1
    16    27    28    1
    17    27    29    1
    18    27    30    1
    19    25    31    1
    20    31    32    1
    21    31    33    1
    22    31    34    1
    23    22    23   ar
    24    23    24   ar
    25     6    35    1
    26    35    36    2
    27    35    37    2
    28    35    38    1
    29    38    39   ar
    30    39    40   ar
    31    40    41   ar
    32    41    42    1
    33    41    43   ar
    34    43    44   ar
    35     6     7    1
    36     8     9    1
    37     9    10    1
    38    10    11    1
    39    11    14    1
    40    14    15   ar
    41    14    16   ar
    42    11    12    1
    43    12    13    1
    44    13     8    1
    45     7     3    1
    46    24    19   ar
    47    44    38   ar
