@<TRIPOS>MOLECULE
*****
 32 36 0 0 0
SMALL
GASTEIGER

@<TRIPOS>ATOM
      1 C          61.6879   89.5593   11.7929 C.3     1  UNL1        0.1096
      2 C          60.9004   90.6317   11.1000 C.3     1  UNL1        0.1622
      3 O          60.3585   90.3925    9.7220 O.3     1  UNL1       -0.3502
      4 C          60.6041   89.0810    9.0367 C.3     1  UNL1        0.1637
      5 C          61.3916   88.0087    9.7295 C.3     1  UNL1        0.1257
      6 N          61.9335   88.2478   11.1076 N.am    1  UNL1       -0.2723
      7 C          62.7210   87.1755   11.8004 C.2     1  UNL1        0.2506
      8 O          63.2629   87.4147   13.1785 O.2     1  UNL1       -0.2699
      9 C          62.9667   85.8640   11.1151 C.ar    1  UNL1        0.0729
     10 C          62.9371   85.7832    9.6176 C.ar    1  UNL1        0.0061
     11 C          63.1827   84.4717    8.9323 C.ar    1  UNL1        0.0002
     12 C          63.4579   83.2410    9.7445 C.ar    1  UNL1        0.0016
     13 C          63.4875   83.3219   11.2421 C.ar    1  UNL1        0.0211
     14 C          63.2419   84.6334   11.9274 C.ar    1  UNL1        0.1072
     15 N          63.2714   84.7142   13.4249 N.ar    1  UNL1       -0.1477
     16 N          64.4874   84.9484   14.2714 N.ar    1  UNL1       -0.1447
     17 C          64.0577   84.9540   15.7085 C.ar    1  UNL1        0.1446
     18 C          62.5761   84.7233   15.7502 C.ar    1  UNL1        0.1446
     19 N          62.0902   84.5751   14.3388 N.ar    1  UNL1       -0.1447
     20 C          62.2298   89.7985   13.1710 C.3     1  UNL1        0.0484
     21 C          63.6252   89.7609   15.8264 C.3     1  UNL1        0.0307
     22 C          64.2174   90.5239   14.6788 C.ar    1  UNL1       -0.0256
     23 C          65.5073   91.2680   14.8588 C.ar    1  UNL1       -0.0030
     24 C          66.0995   92.0309   13.7110 C.ar    1  UNL1        0.0206
     25 C          65.4018   92.0497   12.3833 C.ar    1  UNL1        0.1026
     26 C          64.1119   91.3056   12.2033 C.ar    1  UNL1        0.0164
     27 C          63.5197   90.5427   13.3510 C.ar    1  UNL1       -0.0228
     28 N          65.9940   92.8127   11.2355 N.ar    1  UNL1       -0.1478
     29 N          65.5360   94.1512   10.7368 N.ar    1  UNL1       -0.1447
     30 C          66.4070   94.5369    9.5781 C.ar    1  UNL1        0.1446
     31 C          67.4033   93.4367    9.3607 C.ar    1  UNL1        0.1446
     32 N          67.1479   92.3711   10.3851 N.ar    1  UNL1       -0.1447
@<TRIPOS>BOND
     1    21    22    1
     2    22    23   ar
     3    23    24   ar
     4    24    25   ar
     5    25    28    1
     6    28    29   ar
     7    29    30   ar
     8    30    31   ar
     9    31    32   ar
    10    25    26   ar
    11    26    27   ar
    12    27    20    1
    13     1    20    1
    14     1     2    1
    15     2     3    1
    16     3     4    1
    17     4     5    1
    18     5     6    1
    19     6     7   am
    20     7     8    2
    21     7     9    1
    22     9    10   ar
    23    10    11   ar
    24    11    12   ar
    25    12    13   ar
    26    13    14   ar
    27    14    15    1
    28    15    16   ar
    29    16    17   ar
    30    17    18   ar
    31    18    19   ar
    32    27    22   ar
    33     6     1    1
    34    14     9   ar
    35    19    15   ar
    36    32    28   ar
@<TRIPOS>MOLECULE
*****
 32 36 0 0 0
SMALL
GASTEIGER

@<TRIPOS>ATOM
      1 C          61.3279   88.7868   11.3459 C.3     1  UNL1        0.1096
      2 C          60.2685   89.4689   10.5319 C.3     1  UNL1        0.1622
      3 O          59.5823   88.7285    9.4225 O.3     1  UNL1       -0.3502
      4 C          59.9555   87.3060    9.1270 C.3     1  UNL1        0.1637
      5 C          61.0148   86.6240    9.9409 C.3     1  UNL1        0.1257
      6 N          61.7011   87.3644   11.0504 N.am    1  UNL1       -0.2723
      7 C          62.7604   86.6823   11.8643 C.2     1  UNL1        0.2506
      8 O          63.4466   87.4227   12.9739 O.2     1  UNL1       -0.2699
      9 C          63.1336   85.2598   11.5688 C.ar    1  UNL1        0.0729
     10 C          63.2692   84.7998   10.1476 C.ar    1  UNL1        0.0061
     11 C          63.6423   83.3773    9.8521 C.ar    1  UNL1        0.0002
     12 C          63.8799   82.4149   10.9778 C.ar    1  UNL1        0.0016
     13 C          63.7443   82.8749   12.3991 C.ar    1  UNL1        0.0211
     14 C          63.3711   84.2974   12.6946 C.ar    1  UNL1        0.1072
     15 N          63.2355   84.7574   14.1158 N.ar    1  UNL1       -0.1477
     16 N          62.0019   84.6521   14.9628 N.ar    1  UNL1       -0.1447
     17 C          62.3137   85.2332   16.3101 C.ar    1  UNL1        0.1446
     18 C          63.7399   85.6976   16.2958 C.ar    1  UNL1        0.1446
     19 N          64.3096   85.4035   14.9397 N.ar    1  UNL1       -0.1447
     20 C          62.0141   89.5272   12.4554 C.3     1  UNL1        0.0484
     21 C          62.3288   90.6138    9.6768 C.3     1  UNL1        0.0307
     22 C          63.2896   91.0206   10.7545 C.ar    1  UNL1       -0.0256
     23 C          64.4078   91.9706   10.4429 C.ar    1  UNL1       -0.0030
     24 C          65.3686   92.3774   11.5206 C.ar    1  UNL1        0.0206
     25 C          65.2112   91.8341   12.9098 C.ar    1  UNL1        0.1026
     26 C          64.0930   90.8841   13.2214 C.ar    1  UNL1        0.0164
     27 C          63.1322   90.4773   12.1438 C.ar    1  UNL1       -0.0228
     28 N          66.1720   92.2409   13.9876 N.ar    1  UNL1       -0.1478
     29 N          65.8197   92.5474   15.4130 N.ar    1  UNL1       -0.1447
     30 C          67.0837   92.9085   16.1356 C.ar    1  UNL1        0.1446
     31 C          68.2172   92.8251   15.1565 C.ar    1  UNL1        0.1446
     32 N          67.6537   92.4125   13.8291 N.ar    1  UNL1       -0.1447
@<TRIPOS>BOND
     1    21    22    1
     2    22    23   ar
     3    23    24   ar
     4    24    25   ar
     5    25    28    1
     6    28    29   ar
     7    29    30   ar
     8    30    31   ar
     9    31    32   ar
    10    25    26   ar
    11    26    27   ar
    12    27    20    1
    13     1    20    1
    14     1     2    1
    15     2     3    1
    16     3     4    1
    17     4     5    1
    18     5     6    1
    19     6     7   am
    20     7     8    2
    21     7     9    1
    22     9    10   ar
    23    10    11   ar
    24    11    12   ar
    25    12    13   ar
    26    13    14   ar
    27    14    15    1
    28    15    16   ar
    29    16    17   ar
    30    17    18   ar
    31    18    19   ar
    32    27    22   ar
    33     6     1    1
    34    14     9   ar
    35    19    15   ar
    36    32    28   ar
@<TRIPOS>MOLECULE
*****
 32 36 0 0 0
SMALL
GASTEIGER

@<TRIPOS>ATOM
      1 C          63.3497   88.7572   12.4093 C.3     1  UNL1        0.1096
      2 C          63.0697   87.3006   12.6333 C.3     1  UNL1        0.1622
      3 O          63.6280   86.6065   13.8401 O.3     1  UNL1       -0.3502
      4 C          64.4664   87.3688   14.8229 C.3     1  UNL1        0.1637
      5 C          64.7465   88.8253   14.5989 C.3     1  UNL1        0.1257
      6 N          64.1881   89.5195   13.3921 N.am    1  UNL1       -0.2723
      7 C          64.4682   90.9760   13.1681 C.2     1  UNL1        0.2506
      8 O          63.9098   91.6702   11.9613 O.2     1  UNL1       -0.2699
      9 C          65.3066   91.7383   14.1509 C.ar    1  UNL1        0.0729
     10 C          65.0115   91.6463   15.6187 C.ar    1  UNL1        0.0061
     11 C          65.8499   92.4086   16.6015 C.ar    1  UNL1        0.0002
     12 C          66.9834   93.2630   16.1165 C.ar    1  UNL1        0.0016
     13 C          67.2785   93.3550   14.6487 C.ar    1  UNL1        0.0211
     14 C          66.4401   92.5927   13.6659 C.ar    1  UNL1        0.1072
     15 N          66.7352   92.6847   12.1981 N.ar    1  UNL1       -0.1477
     16 N          67.7735   91.8962   11.4563 N.ar    1  UNL1       -0.1447
     17 C          67.7237   92.3055   10.0142 C.ar    1  UNL1        0.1446
     18 C          66.6547   93.3471    9.8646 C.ar    1  UNL1        0.1446
     19 N          66.0437   93.5814   11.2144 N.ar    1  UNL1       -0.1447
     20 C          62.7913   89.4513   11.2025 C.3     1  UNL1        0.0484
     21 C          59.9384   90.3521   11.4256 C.3     1  UNL1        0.0307
     22 C          60.3018   89.2365   10.4911 C.ar    1  UNL1       -0.0256
     23 C          59.2387   88.5712    9.6681 C.ar    1  UNL1       -0.0030
     24 C          59.6021   87.4556    8.7335 C.ar    1  UNL1        0.0206
     25 C          61.0285   87.0052    8.6220 C.ar    1  UNL1        0.1026
     26 C          62.0916   87.6704    9.4450 C.ar    1  UNL1        0.0164
     27 C          61.7283   88.7860   10.3795 C.ar    1  UNL1       -0.0228
     28 N          61.3919   85.8895    7.6875 N.ar    1  UNL1       -0.1478
     29 N          60.4607   85.1969    6.7372 N.ar    1  UNL1       -0.1447
     30 C          61.2436   84.1499    6.0016 C.ar    1  UNL1        0.1446
     31 C          62.6586   84.1956    6.4973 C.ar    1  UNL1        0.1446
     32 N          62.7503   85.2707    7.5392 N.ar    1  UNL1       -0.1447
@<TRIPOS>BOND
     1    21    22    1
     2    22    23   ar
     3    23    24   ar
     4    24    25   ar
     5    25    28    1
     6    28    29   ar
     7    29    30   ar
     8    30    31   ar
     9    31    32   ar
    10    25    26   ar
    11    26    27   ar
    12    27    20    1
    13     1    20    1
    14     1     2    1
    15     2     3    1
    16     3     4    1
    17     4     5    1
    18     5     6    1
    19     6     7   am
    20     7     8    2
    21     7     9    1
    22     9    10   ar
    23    10    11   ar
    24    11    12   ar
    25    12    13   ar
    26    13    14   ar
    27    14    15    1
    28    15    16   ar
    29    16    17   ar
    30    17    18   ar
    31    18    19   ar
    32    27    22   ar
    33     6     1    1
    34    14     9   ar
    35    19    15   ar
    36    32    28   ar
@<TRIPOS>MOLECULE
*****
 32 36 0 0 0
SMALL
GASTEIGER

@<TRIPOS>ATOM
      1 C          63.5459   89.1992   12.8273 C.3     1  UNL1        0.1096
      2 C          62.4219   88.3623   12.2920 C.3     1  UNL1        0.1622
      3 O          61.6556   88.8186   11.0860 O.3     1  UNL1       -0.3502
      4 C          62.0131   90.1117   10.4152 C.3     1  UNL1        0.1637
      5 C          63.1369   90.9486   10.9504 C.3     1  UNL1        0.1257
      6 N          63.9033   90.4924   12.1565 N.am    1  UNL1       -0.2723
      7 C          65.0272   91.3292   12.6917 C.2     1  UNL1        0.2506
      8 O          65.7936   90.8730   13.8978 O.2     1  UNL1       -0.2699
      9 C          65.3847   92.6224   12.0210 C.ar    1  UNL1        0.0729
     10 C          64.8256   92.9446   10.6669 C.ar    1  UNL1        0.0061
     11 C          65.1831   94.2377    9.9961 C.ar    1  UNL1        0.0002
     12 C          66.0997   95.2087   10.6794 C.ar    1  UNL1        0.0016
     13 C          66.6588   94.8866   12.0336 C.ar    1  UNL1        0.0211
     14 C          66.3013   93.5934   12.7044 C.ar    1  UNL1        0.1072
     15 N          66.8604   93.2713   14.0584 N.ar    1  UNL1       -0.1477
     16 N          68.2882   92.9275   14.3638 N.ar    1  UNL1       -0.1447
     17 C          68.4001   92.6801   15.8390 C.ar    1  UNL1        0.1446
     18 C          67.0414   92.8710   16.4454 C.ar    1  UNL1        0.1446
     19 N          66.0899   93.2363   15.3449 N.ar    1  UNL1       -0.1447
     20 C          64.3122   88.7429   14.0332 C.3     1  UNL1        0.0484
     21 C          63.2279   88.9089   16.8255 C.3     1  UNL1        0.0307
     22 C          63.3597   87.5761   16.1502 C.ar    1  UNL1       -0.0256
     23 C          62.9494   86.3262   16.8709 C.ar    1  UNL1       -0.0030
     24 C          63.0812   84.9933   16.1954 C.ar    1  UNL1        0.0206
     25 C          63.6233   84.9104   14.7993 C.ar    1  UNL1        0.1026
     26 C          64.0337   86.1602   14.0786 C.ar    1  UNL1        0.0164
     27 C          63.9019   87.4930   14.7540 C.ar    1  UNL1       -0.0228
     28 N          63.7551   83.5775   14.1239 N.ar    1  UNL1       -0.1478
     29 N          63.2754   82.2635   14.6654 N.ar    1  UNL1       -0.1447
     30 C          63.6136   81.1985   13.6646 C.ar    1  UNL1        0.1446
     31 C          64.3023   81.8544   12.5046 C.ar    1  UNL1        0.1446
     32 N          64.3897   83.3247   12.7885 N.ar    1  UNL1       -0.1447
@<TRIPOS>BOND
     1    21    22    1
     2    22    23   ar
     3    23    24   ar
     4    24    25   ar
     5    25    28    1
     6    28    29   ar
     7    29    30   ar
     8    30    31   ar
     9    31    32   ar
    10    25    26   ar
    11    26    27   ar
    12    27    20    1
    13     1    20    1
    14     1     2    1
    15     2     3    1
    16     3     4    1
    17     4     5    1
    18     5     6    1
    19     6     7   am
    20     7     8    2
    21     7     9    1
    22     9    10   ar
    23    10    11   ar
    24    11    12   ar
    25    12    13   ar
    26    13    14   ar
    27    14    15    1
    28    15    16   ar
    29    16    17   ar
    30    17    18   ar
    31    18    19   ar
    32    27    22   ar
    33     6     1    1
    34    14     9   ar
    35    19    15   ar
    36    32    28   ar
@<TRIPOS>MOLECULE
*****
 32 36 0 0 0
SMALL
GASTEIGER

@<TRIPOS>ATOM
      1 C          63.2363   89.6954   14.4226 C.3     1  UNL1        0.1096
      2 C          63.1355   90.5053   15.6812 C.3     1  UNL1        0.1622
      3 O          63.1835   89.8246   17.0170 O.3     1  UNL1       -0.3502
      4 C          63.3324   88.3340   17.0942 C.3     1  UNL1        0.1637
      5 C          63.4332   87.5241   15.8357 C.3     1  UNL1        0.1257
      6 N          63.3852   88.2048   14.4999 N.am    1  UNL1       -0.2723
      7 C          63.4861   87.3949   13.2414 C.2     1  UNL1        0.2506
      8 O          63.4381   88.0756   11.9055 O.2     1  UNL1       -0.2699
      9 C          63.6350   85.9043   13.3186 C.ar    1  UNL1        0.0729
     10 C          64.4197   85.2860   14.4374 C.ar    1  UNL1        0.0061
     11 C          64.5686   83.7954   14.5147 C.ar    1  UNL1        0.0002
     12 C          63.9328   82.9232   13.4731 C.ar    1  UNL1        0.0016
     13 C          63.1480   83.5415   12.3542 C.ar    1  UNL1        0.0211
     14 C          62.9991   85.0321   12.2770 C.ar    1  UNL1        0.1072
     15 N          62.2144   85.6505   11.1582 N.ar    1  UNL1       -0.1477
     16 N          60.9638   86.4659   11.3039 N.ar    1  UNL1       -0.1447
     17 C          60.5190   86.8814    9.9330 C.ar    1  UNL1        0.1446
     18 C          61.4947   86.3227    8.9399 C.ar    1  UNL1        0.1446
     19 N          62.5424   85.5620    9.6972 N.ar    1  UNL1       -0.1447
     20 C          63.1883   90.3761   13.0869 C.3     1  UNL1        0.0484
     21 C          63.3091   91.3846   10.2640 C.3     1  UNL1        0.0307
     22 C          64.3819   91.7622   11.2419 C.ar    1  UNL1       -0.0256
     23 C          65.5152   92.6442   10.8083 C.ar    1  UNL1       -0.0030
     24 C          66.5881   93.0218   11.7863 C.ar    1  UNL1        0.0206
     25 C          66.5277   92.5176   13.1977 C.ar    1  UNL1        0.1026
     26 C          65.3945   91.6357   13.6312 C.ar    1  UNL1        0.0164
     27 C          64.3216   91.2580   12.6533 C.ar    1  UNL1       -0.0228
     28 N          67.6006   92.8953   14.1756 N.ar    1  UNL1       -0.1478
     29 N          67.4290   93.7807   15.3742 N.ar    1  UNL1       -0.1447
     30 C          68.7558   93.8865   16.0660 C.ar    1  UNL1        0.1446
     31 C          69.7473   93.0665   15.2949 C.ar    1  UNL1        0.1446
     32 N          69.0334   92.4539   14.1266 N.ar    1  UNL1       -0.1447
@<TRIPOS>BOND
     1    21    22    1
     2    22    23   ar
     3    23    24   ar
     4    24    25   ar
     5    25    28    1
     6    28    29   ar
     7    29    30   ar
     8    30    31   ar
     9    31    32   ar
    10    25    26   ar
    11    26    27   ar
    12    27    20    1
    13     1    20    1
    14     1     2    1
    15     2     3    1
    16     3     4    1
    17     4     5    1
    18     5     6    1
    19     6     7   am
    20     7     8    2
    21     7     9    1
    22     9    10   ar
    23    10    11   ar
    24    11    12   ar
    25    12    13   ar
    26    13    14   ar
    27    14    15    1
    28    15    16   ar
    29    16    17   ar
    30    17    18   ar
    31    18    19   ar
    32    27    22   ar
    33     6     1    1
    34    14     9   ar
    35    19    15   ar
    36    32    28   ar
@<TRIPOS>MOLECULE
*****
 32 36 0 0 0
SMALL
GASTEIGER

@<TRIPOS>ATOM
      1 C          62.2379   86.0915   10.1482 C.3     1  UNL1        0.1096
      2 C          62.5333   86.4081    8.7120 C.3     1  UNL1        0.1622
      3 O          63.2137   85.3911    7.8445 O.3     1  UNL1       -0.3502
      4 C          63.5988   84.0575    8.4130 C.3     1  UNL1        0.1637
      5 C          63.3035   83.7409    9.8491 C.3     1  UNL1        0.1257
      6 N          62.6230   84.7579   10.7168 N.am    1  UNL1       -0.2723
      7 C          62.3276   84.4413   12.1529 C.2     1  UNL1        0.2506
      8 O          61.6472   85.4583   13.0206 O.2     1  UNL1       -0.2699
      9 C          62.7127   83.1077   12.7215 C.ar    1  UNL1        0.0729
     10 C          62.4495   81.8549   11.9398 C.ar    1  UNL1        0.0061
     11 C          62.8346   80.5213   12.5084 C.ar    1  UNL1        0.0002
     12 C          63.4829   80.4406   13.8586 C.ar    1  UNL1        0.0016
     13 C          63.7462   81.6935   14.6403 C.ar    1  UNL1        0.0211
     14 C          63.3611   83.0270   14.0717 C.ar    1  UNL1        0.1072
     15 N          63.6244   84.2799   14.8534 N.ar    1  UNL1       -0.1477
     16 N          64.7153   85.2738   14.5849 N.ar    1  UNL1       -0.1447
     17 C          64.6081   86.3670   15.6064 C.ar    1  UNL1        0.1446
     18 C          63.4508   86.0487   16.5061 C.ar    1  UNL1        0.1446
     19 N          62.8429   84.7589   16.0408 N.ar    1  UNL1       -0.1447
     20 C          61.5575   87.1085   11.0158 C.3     1  UNL1        0.0484
     21 C          60.4682   88.9805    8.9399 C.3     1  UNL1        0.0307
     22 C          61.4615   89.4755    9.9490 C.ar    1  UNL1       -0.0256
     23 C          61.9102   90.9066    9.9202 C.ar    1  UNL1       -0.0030
     24 C          62.9036   91.4016   10.9294 C.ar    1  UNL1        0.0206
     25 C          63.4482   90.4655   11.9673 C.ar    1  UNL1        0.1026
     26 C          62.9995   89.0345   11.9961 C.ar    1  UNL1        0.0164
     27 C          62.0062   88.5395   10.9870 C.ar    1  UNL1       -0.0228
     28 N          64.4415   90.9605   12.9764 N.ar    1  UNL1       -0.1478
     29 N          65.0943   92.3111   12.9819 N.ar    1  UNL1       -0.1447
     30 C          66.0127   92.3771   14.1661 C.ar    1  UNL1        0.1446
     31 C          65.9274   91.0674   14.8925 C.ar    1  UNL1        0.1446
     32 N          64.9564   90.1920   14.1572 N.ar    1  UNL1       -0.1447
@<TRIPOS>BOND
     1    21    22    1
     2    22    23   ar
     3    23    24   ar
     4    24    25   ar
     5    25    28    1
     6    28    29   ar
     7    29    30   ar
     8    30    31   ar
     9    31    32   ar
    10    25    26   ar
    11    26    27   ar
    12    27    20    1
    13     1    20    1
    14     1     2    1
    15     2     3    1
    16     3     4    1
    17     4     5    1
    18     5     6    1
    19     6     7   am
    20     7     8    2
    21     7     9    1
    22     9    10   ar
    23    10    11   ar
    24    11    12   ar
    25    12    13   ar
    26    13    14   ar
    27    14    15    1
    28    15    16   ar
    29    16    17   ar
    30    17    18   ar
    31    18    19   ar
    32    27    22   ar
    33     6     1    1
    34    14     9   ar
    35    19    15   ar
    36    32    28   ar
@<TRIPOS>MOLECULE
*****
 32 36 0 0 0
SMALL
GASTEIGER

@<TRIPOS>ATOM
      1 C          62.7047   84.7856   10.8652 C.3     1  UNL1        0.1096
      2 C          63.7289   83.7712   10.4502 C.3     1  UNL1        0.1622
      3 O          64.1061   83.6343    9.0049 O.3     1  UNL1       -0.3502
      4 C          63.4591   84.5116    7.9745 C.3     1  UNL1        0.1637
      5 C          62.4349   85.5259    8.3894 C.3     1  UNL1        0.1257
      6 N          62.0576   85.6629    9.8348 N.am    1  UNL1       -0.2723
      7 C          61.0334   86.6771   10.2497 C.2     1  UNL1        0.2506
      8 O          60.6562   86.8142   11.6951 O.2     1  UNL1       -0.2699
      9 C          60.3864   87.5544    9.2193 C.ar    1  UNL1        0.0729
     10 C          59.5050   86.9504    8.1666 C.ar    1  UNL1        0.0061
     11 C          58.8580   87.8277    7.1362 C.ar    1  UNL1        0.0002
     12 C          59.0924   89.3091    7.1585 C.ar    1  UNL1        0.0016
     13 C          59.9738   89.9132    8.2113 C.ar    1  UNL1        0.0211
     14 C          60.6208   89.0359    9.2417 C.ar    1  UNL1        0.1072
     15 N          61.5022   89.6400   10.2944 N.ar    1  UNL1       -0.1477
     16 N          62.9064   90.1283   10.0948 N.ar    1  UNL1       -0.1447
     17 C          63.4062   90.6520   11.4086 C.ar    1  UNL1        0.1446
     18 C          62.3108   90.4872   12.4201 C.ar    1  UNL1        0.1446
     19 N          61.1341   89.8618   11.7315 N.ar    1  UNL1       -0.1447
     20 C          62.3275   84.9225   12.3105 C.3     1  UNL1        0.0484
     21 C          64.2814   83.0556   13.6131 C.3     1  UNL1        0.0307
     22 C          64.3014   84.5171   13.9504 C.ar    1  UNL1       -0.0256
     23 C          65.2984   85.0451   14.9389 C.ar    1  UNL1       -0.0030
     24 C          65.3184   86.5066   15.2761 C.ar    1  UNL1        0.0206
     25 C          64.3414   87.4400   14.6248 C.ar    1  UNL1        0.1026
     26 C          63.3445   86.9120   13.6362 C.ar    1  UNL1        0.0164
     27 C          63.3244   85.4506   13.2990 C.ar    1  UNL1       -0.0228
     28 N          64.3614   88.9016   14.9620 N.ar    1  UNL1       -0.1478
     29 N          65.2655   89.9338   14.3561 N.ar    1  UNL1       -0.1447
     30 C          64.9437   91.2577   14.9839 C.ar    1  UNL1        0.1446
     31 C          63.8407   91.0434   15.9778 C.ar    1  UNL1        0.1446
     32 N          63.4809   89.5873   15.9642 N.ar    1  UNL1       -0.1447
@<TRIPOS>BOND
     1    21    22    1
     2    22    23   ar
     3    23    24   ar
     4    24    25   ar
     5    25    28    1
     6    28    29   ar
     7    29    30   ar
     8    30    31   ar
     9    31    32   ar
    10    25    26   ar
    11    26    27   ar
    12    27    20    1
    13     1    20    1
    14     1     2    1
    15     2     3    1
    16     3     4    1
    17     4     5    1
    18     5     6    1
    19     6     7   am
    20     7     8    2
    21     7     9    1
    22     9    10   ar
    23    10    11   ar
    24    11    12   ar
    25    12    13   ar
    26    13    14   ar
    27    14    15    1
    28    15    16   ar
    29    16    17   ar
    30    17    18   ar
    31    18    19   ar
    32    27    22   ar
    33     6     1    1
    34    14     9   ar
    35    19    15   ar
    36    32    28   ar
@<TRIPOS>MOLECULE
*****
 32 36 0 0 0
SMALL
GASTEIGER

@<TRIPOS>ATOM
      1 C          64.0391   94.2897   -0.6821 C.3     1  UNL1        0.1096
      2 C          64.5043   95.1950    0.4198 C.3     1  UNL1        0.1622
      3 O          65.2076   96.4781    0.0898 O.3     1  UNL1       -0.3502
      4 C          65.4458   96.8560   -1.3421 C.3     1  UNL1        0.1637
      5 C          64.9807   95.9508   -2.4440 C.3     1  UNL1        0.1257
      6 N          64.2773   94.6676   -2.1140 N.am    1  UNL1       -0.2723
      7 C          63.8122   93.7625   -3.2160 C.2     1  UNL1        0.2506
      8 O          63.1088   92.4793   -2.8860 O.2     1  UNL1       -0.2699
      9 C          64.0504   94.1404   -4.6479 C.ar    1  UNL1        0.0729
     10 C          65.2891   93.6707   -5.3515 C.ar    1  UNL1        0.0061
     11 C          65.5273   94.0486   -6.7834 C.ar    1  UNL1        0.0002
     12 C          64.5269   94.8962   -7.5118 C.ar    1  UNL1        0.0016
     13 C          63.2881   95.3660   -6.8082 C.ar    1  UNL1        0.0211
     14 C          63.0499   94.9881   -5.3763 C.ar    1  UNL1        0.1072
     15 N          61.8113   95.4578   -4.6727 N.ar    1  UNL1       -0.1477
     16 N          60.4894   94.7493   -4.6472 N.ar    1  UNL1       -0.1447
     17 C          59.5381   95.5721   -3.8298 C.ar    1  UNL1        0.1446
     18 C          60.2722   96.7892   -3.3502 C.ar    1  UNL1        0.1446
     19 N          61.6770   96.7185   -3.8711 N.ar    1  UNL1       -0.1447
     20 C          63.3358   93.0066   -0.3521 C.3     1  UNL1        0.0484
     21 C          63.2397   92.3805    2.5803 C.3     1  UNL1        0.0307
     22 C          61.9780   92.7226    1.8447 C.ar    1  UNL1       -0.0256
     23 C          60.6683   92.7517    2.5753 C.ar    1  UNL1       -0.0030
     24 C          59.4066   93.0938    1.8396 C.ar    1  UNL1        0.0206
     25 C          59.4546   93.4068    0.3735 C.ar    1  UNL1        0.1026
     26 C          60.7644   93.3778   -0.3571 C.ar    1  UNL1        0.0164
     27 C          62.0261   93.0357    0.3785 C.ar    1  UNL1       -0.0228
     28 N          58.1929   93.7489   -0.3622 N.ar    1  UNL1       -0.1478
     29 N          57.1447   92.7760   -0.8145 N.ar    1  UNL1       -0.1447
     30 C          56.0619   93.5497   -1.5066 C.ar    1  UNL1        0.1446
     31 C          56.4409   95.0009   -1.4819 C.ar    1  UNL1        0.1446
     32 N          57.7580   95.1240   -0.7746 N.ar    1  UNL1       -0.1447
@<TRIPOS>BOND
     1    21    22    1
     2    22    23   ar
     3    23    24   ar
     4    24    25   ar
     5    25    28    1
     6    28    29   ar
     7    29    30   ar
     8    30    31   ar
     9    31    32   ar
    10    25    26   ar
    11    26    27   ar
    12    27    20    1
    13     1    20    1
    14     1     2    1
    15     2     3    1
    16     3     4    1
    17     4     5    1
    18     5     6    1
    19     6     7   am
    20     7     8    2
    21     7     9    1
    22     9    10   ar
    23    10    11   ar
    24    11    12   ar
    25    12    13   ar
    26    13    14   ar
    27    14    15    1
    28    15    16   ar
    29    16    17   ar
    30    17    18   ar
    31    18    19   ar
    32    27    22   ar
    33     6     1    1
    34    14     9   ar
    35    19    15   ar
    36    32    28   ar
@<TRIPOS>MOLECULE
*****
 32 36 0 0 0
SMALL
GASTEIGER

@<TRIPOS>ATOM
      1 C          62.9116   90.0786   13.6948 C.3     1  UNL1        0.1096
      2 C          61.8211   89.4147   14.4822 C.3     1  UNL1        0.1622
      3 O          61.8759   89.4079   15.9812 O.3     1  UNL1       -0.3502
      4 C          63.0213   90.0651   16.6927 C.3     1  UNL1        0.1637
      5 C          64.1118   90.7290   15.9054 C.3     1  UNL1        0.1257
      6 N          64.0569   90.7358   14.4063 N.am    1  UNL1       -0.2723
      7 C          65.1474   91.3997   13.6189 C.2     1  UNL1        0.2506
      8 O          65.0926   91.4065   12.1199 O.2     1  UNL1       -0.2699
      9 C          66.2928   92.0569   14.3305 C.ar    1  UNL1        0.0729
     10 C          66.6224   91.6671   15.7409 C.ar    1  UNL1        0.0061
     11 C          67.7677   92.3243   16.4525 C.ar    1  UNL1        0.0002
     12 C          68.5835   93.3712   15.7536 C.ar    1  UNL1        0.0016
     13 C          68.2538   93.7610   14.3431 C.ar    1  UNL1        0.0211
     14 C          67.1085   93.1039   13.6315 C.ar    1  UNL1        0.1072
     15 N          66.7788   93.4937   12.2211 N.ar    1  UNL1       -0.1477
     16 N          67.3605   92.8855   10.9794 N.ar    1  UNL1       -0.1447
     17 C          66.7508   93.5760    9.7956 C.ar    1  UNL1        0.1446
     18 C          65.7923   94.6110   10.3057 C.ar    1  UNL1        0.1446
     19 N          65.8097   94.5601   11.8047 N.ar    1  UNL1       -0.1447
     20 C          62.8567   90.0854   12.1958 C.3     1  UNL1        0.0484
     21 C          60.3047   90.5793   10.6980 C.3     1  UNL1        0.0307
     22 C          60.9103   89.2071   10.7158 C.ar    1  UNL1       -0.0256
     23 C          60.2399   88.0819    9.9848 C.ar    1  UNL1       -0.0030
     24 C          60.8456   86.7097   10.0026 C.ar    1  UNL1        0.0206
     25 C          62.1216   86.4628   10.7515 C.ar    1  UNL1        0.1026
     26 C          62.7919   87.5880   11.4826 C.ar    1  UNL1        0.0164
     27 C          62.1863   88.9602   11.4648 C.ar    1  UNL1       -0.0228
     28 N          62.7272   85.0905   10.7694 N.ar    1  UNL1       -0.1478
     29 N          62.7211   84.1392   11.9291 N.ar    1  UNL1       -0.1447
     30 C          63.4354   82.8894   11.5072 C.ar    1  UNL1        0.1446
     31 C          63.8830   83.0685   10.0867 C.ar    1  UNL1        0.1446
     32 N          63.4453   84.4288    9.6308 N.ar    1  UNL1       -0.1447
@<TRIPOS>BOND
     1    21    22    1
     2    22    23   ar
     3    23    24   ar
     4    24    25   ar
     5    25    28    1
     6    28    29   ar
     7    29    30   ar
     8    30    31   ar
     9    31    32   ar
    10    25    26   ar
    11    26    27   ar
    12    27    20    1
    13     1    20    1
    14     1     2    1
    15     2     3    1
    16     3     4    1
    17     4     5    1
    18     5     6    1
    19     6     7   am
    20     7     8    2
    21     7     9    1
    22     9    10   ar
    23    10    11   ar
    24    11    12   ar
    25    12    13   ar
    26    13    14   ar
    27    14    15    1
    28    15    16   ar
    29    16    17   ar
    30    17    18   ar
    31    18    19   ar
    32    27    22   ar
    33     6     1    1
    34    14     9   ar
    35    19    15   ar
    36    32    28   ar
