@<TRIPOS>MOLECULE
*****
 23 24 0 0 0
SMALL
GASTEIGER

@<TRIPOS>ATOM
      1 C          62.0139   89.1146   10.4758 C.ar    1  UNL1        0.0843
      2 C          62.8014   90.3908   10.4416 C.ar    1  UNL1        0.0104
      3 C          63.7087   90.7430   11.5830 C.ar    1  UNL1        0.0366
      4 C          64.4963   92.0192   11.5488 C.ar    1  UNL1        0.0112
      5 C          65.4036   92.3714   12.6901 C.ar    1  UNL1        0.0563
      6 BR         66.1911   93.6476   12.6560 Br      1  UNL1       -0.0475
      7 C          65.5235   91.4474   13.8657 C.ar    1  UNL1        0.1604
      8 N          64.7360   90.1712   13.8998 N.ar    1  UNL1       -0.2221
      9 C          63.8286   89.8190   12.7585 C.ar    1  UNL1        0.1636
     10 N          63.0411   88.5429   12.7926 N.ar    1  UNL1       -0.2122
     11 C          62.1337   88.1907   11.6513 C.ar    1  UNL1        0.1314
     12 N          61.3462   86.9144   11.6855 N.pl3   1  UNL1       -0.3425
     13 H          61.4249   86.3080   12.4570 H       1  UNL1        0.1437
     14 H          60.7507   86.6833   10.9364 H       1  UNL1        0.1437
     15 N          60.2532   89.8208    8.7006 N.am    1  UNL1       -0.3252
     16 C          61.1065   88.7625    9.3345 C.2     1  UNL1        0.2455
     17 O          61.0524   87.3520    8.8270 O.2     1  UNL1       -0.2703
     18 H          59.6577   89.5896    7.9515 H       1  UNL1        0.1453
     19 H          60.2887   90.7465    9.0336 H       1  UNL1        0.1453
     20 C          66.4308   91.7995   15.0070 C.3     1  UNL1        0.4354
     21 F          67.3382   92.1517   16.1483 F       1  UNL1       -0.1644
     22 F          67.5993   91.2407   14.2505 F       1  UNL1       -0.1644
     23 F          65.2623   92.3584   15.7635 F       1  UNL1       -0.1644
@<TRIPOS>BOND
     1    15    16   am
     2    16    17    2
     3    16     1    1
     4     1     2   ar
     5     2     3   ar
     6     3     4   ar
     7     4     5   ar
     8     5     6    1
     9     5     7   ar
    10     7    20    1
    11    20    21    1
    12    20    22    1
    13    20    23    1
    14     7     8   ar
    15     8     9   ar
    16     9    10   ar
    17    10    11   ar
    18    11    12    1
    19    11     1   ar
    20     9     3   ar
    21    15    18    1
    22    15    19    1
    23    12    13    1
    24    12    14    1
@<TRIPOS>MOLECULE
*****
 23 24 0 0 0
SMALL
GASTEIGER

@<TRIPOS>ATOM
      1 C          63.1901   83.5527   13.3598 C.ar    1  UNL1        0.0843
      2 C          62.3902   84.0046   12.1740 C.ar    1  UNL1        0.0104
      3 C          62.3267   85.4617   11.8235 C.ar    1  UNL1        0.0366
      4 C          61.5268   85.9136   10.6377 C.ar    1  UNL1        0.0112
      5 C          61.4632   87.3707   10.2871 C.ar    1  UNL1        0.0563
      6 BR         60.6634   87.8226    9.1014 Br      1  UNL1       -0.0475
      7 C          62.1996   88.3758   11.1223 C.ar    1  UNL1        0.1604
      8 N          62.9994   87.9239   12.3080 N.ar    1  UNL1       -0.2221
      9 C          63.0630   86.4668   12.6586 C.ar    1  UNL1        0.1636
     10 N          63.8629   86.0149   13.8443 N.ar    1  UNL1       -0.2122
     11 C          63.9264   84.5578   14.1949 C.ar    1  UNL1        0.1314
     12 N          64.7263   84.1059   15.3807 N.pl3   1  UNL1       -0.3425
     13 H          65.2096   84.7657   15.9288 H       1  UNL1        0.1437
     14 H          64.7680   83.1496   15.6108 H       1  UNL1        0.1437
     15 N          62.3149   81.5288   14.7337 N.am    1  UNL1       -0.3252
     16 C          63.2536   82.0956   13.7103 C.2     1  UNL1        0.2455
     17 O          64.2560   81.2054   13.0375 O.2     1  UNL1       -0.2703
     18 H          62.3566   80.5725   14.9638 H       1  UNL1        0.1453
     19 H          61.6570   82.1131   15.1753 H       1  UNL1        0.1453
     20 C          62.1360   89.8329   10.7717 C.3     1  UNL1        0.4354
     21 F          62.0725   91.2900   10.4211 F       1  UNL1       -0.1644
     22 F          60.9800   90.0085   11.7112 F       1  UNL1       -0.1644
     23 F          63.2921   89.6573    9.8322 F       1  UNL1       -0.1644
@<TRIPOS>BOND
     1    15    16   am
     2    16    17    2
     3    16     1    1
     4     1     2   ar
     5     2     3   ar
     6     3     4   ar
     7     4     5   ar
     8     5     6    1
     9     5     7   ar
    10     7    20    1
    11    20    21    1
    12    20    22    1
    13    20    23    1
    14     7     8   ar
    15     8     9   ar
    16     9    10   ar
    17    10    11   ar
    18    11    12    1
    19    11     1   ar
    20     9     3   ar
    21    15    18    1
    22    15    19    1
    23    12    13    1
    24    12    14    1
@<TRIPOS>MOLECULE
*****
 23 24 0 0 0
SMALL
GASTEIGER

@<TRIPOS>ATOM
      1 C          60.4973   87.3615    9.1487 C.ar    1  UNL1        0.0843
      2 C          61.2335   86.0564    9.0790 C.ar    1  UNL1        0.0104
      3 C          61.9473   85.5324   10.2897 C.ar    1  UNL1        0.0366
      4 C          62.6836   84.2273   10.2200 C.ar    1  UNL1        0.0112
      5 C          63.3974   83.7033   11.4307 C.ar    1  UNL1        0.0563
      6 BR         64.1336   82.3983   11.3610 Br      1  UNL1       -0.0475
      7 C          63.3750   84.4844   12.7111 C.ar    1  UNL1        0.1604
      8 N          62.6388   85.7894   12.7808 N.ar    1  UNL1       -0.2221
      9 C          61.9250   86.3134   11.5701 C.ar    1  UNL1        0.1636
     10 N          61.1888   87.6184   11.6398 N.ar    1  UNL1       -0.2122
     11 C          60.4749   88.1425   10.4291 C.ar    1  UNL1        0.1314
     12 N          59.7387   89.4475   10.4988 N.pl3   1  UNL1       -0.3425
     13 H          59.7240   89.9601   11.3392 H       1  UNL1        0.1437
     14 H          59.2702   89.7915    9.7042 H       1  UNL1        0.1437
     15 N          58.9277   86.9678    7.1161 N.am    1  UNL1       -0.3252
     16 C          59.7835   87.8855    7.9379 C.2     1  UNL1        0.2455
     17 O          59.9254   89.3272    7.5490 O.2     1  UNL1       -0.2703
     18 H          58.4592   87.3117    6.3215 H       1  UNL1        0.1453
     19 H          58.8345   86.0215    7.3714 H       1  UNL1        0.1453
     20 C          64.0888   83.9604   13.9219 C.3     1  UNL1        0.4354
     21 F          64.8027   83.4364   15.1326 F       1  UNL1       -0.1644
     22 F          62.8401   83.2479   14.3497 F       1  UNL1       -0.1644
     23 F          65.3375   84.6729   13.4940 F       1  UNL1       -0.1644
@<TRIPOS>BOND
     1    15    16   am
     2    16    17    2
     3    16     1    1
     4     1     2   ar
     5     2     3   ar
     6     3     4   ar
     7     4     5   ar
     8     5     6    1
     9     5     7   ar
    10     7    20    1
    11    20    21    1
    12    20    22    1
    13    20    23    1
    14     7     8   ar
    15     8     9   ar
    16     9    10   ar
    17    10    11   ar
    18    11    12    1
    19    11     1   ar
    20     9     3   ar
    21    15    18    1
    22    15    19    1
    23    12    13    1
    24    12    14    1
@<TRIPOS>MOLECULE
*****
 23 24 0 0 0
SMALL
GASTEIGER

@<TRIPOS>ATOM
      1 C          63.8571   89.6080   14.0155 C.ar    1  UNL1        0.0843
      2 C          64.2864   88.3202   14.6537 C.ar    1  UNL1        0.0104
      3 C          63.9909   87.0136   13.9789 C.ar    1  UNL1        0.0366
      4 C          64.4203   85.7258   14.6171 C.ar    1  UNL1        0.0112
      5 C          64.1248   84.4192   13.9423 C.ar    1  UNL1        0.0563
      6 BR         64.5541   83.1315   14.5805 Br      1  UNL1       -0.0475
      7 C          63.3998   84.4004   12.6292 C.ar    1  UNL1        0.1604
      8 N          62.9705   85.6881   11.9910 N.ar    1  UNL1       -0.2221
      9 C          63.2660   86.9947   12.6658 C.ar    1  UNL1        0.1636
     10 N          62.8367   88.2825   12.0276 N.ar    1  UNL1       -0.2122
     11 C          63.1322   89.5891   12.7025 C.ar    1  UNL1        0.1314
     12 N          62.7028   90.8769   12.0642 N.pl3   1  UNL1       -0.3425
     13 H          62.2270   90.8645   11.2024 H       1  UNL1        0.1437
     14 H          62.8967   91.7345   12.5071 H       1  UNL1        0.1437
     15 N          63.7171   91.1421   16.1076 N.am    1  UNL1       -0.3252
     16 C          64.1526   90.9146   14.6904 C.2     1  UNL1        0.2455
     17 O          64.8836   91.9937   13.9480 O.2     1  UNL1       -0.2703
     18 H          63.9111   91.9997   16.5505 H       1  UNL1        0.1453
     19 H          63.2373   90.4338   16.5949 H       1  UNL1        0.1453
     20 C          63.1043   83.0938   11.9543 C.3     1  UNL1        0.4354
     21 F          62.8088   81.7872   11.2795 F       1  UNL1       -0.1644
     22 F          64.2099   83.3503   10.9735 F       1  UNL1       -0.1644
     23 F          61.9987   82.8373   12.9351 F       1  UNL1       -0.1644
@<TRIPOS>BOND
     1    15    16   am
     2    16    17    2
     3    16     1    1
     4     1     2   ar
     5     2     3   ar
     6     3     4   ar
     7     4     5   ar
     8     5     6    1
     9     5     7   ar
    10     7    20    1
    11    20    21    1
    12    20    22    1
    13    20    23    1
    14     7     8   ar
    15     8     9   ar
    16     9    10   ar
    17    10    11   ar
    18    11    12    1
    19    11     1   ar
    20     9     3   ar
    21    15    18    1
    22    15    19    1
    23    12    13    1
    24    12    14    1
@<TRIPOS>MOLECULE
*****
 23 24 0 0 0
SMALL
GASTEIGER

@<TRIPOS>ATOM
      1 C          61.5824   88.5558   10.4525 C.ar    1  UNL1        0.0843
      2 C          62.4320   88.1242   11.6109 C.ar    1  UNL1        0.0104
      3 C          62.6714   86.6650   11.8627 C.ar    1  UNL1        0.0366
      4 C          63.5210   86.2334   13.0212 C.ar    1  UNL1        0.0112
      5 C          63.7604   84.7742   13.2730 C.ar    1  UNL1        0.0563
      6 BR         64.6100   84.3425   14.4314 Br      1  UNL1       -0.0475
      7 C          63.1502   83.7466   12.3665 C.ar    1  UNL1        0.1604
      8 N          62.3006   84.1782   11.2081 N.ar    1  UNL1       -0.2221
      9 C          62.0612   85.6374   10.9563 C.ar    1  UNL1        0.1636
     10 N          61.2116   86.0691    9.7979 N.ar    1  UNL1       -0.2122
     11 C          60.9722   87.5283    9.5461 C.ar    1  UNL1        0.1314
     12 N          60.1225   87.9599    8.3876 N.pl3   1  UNL1       -0.3425
     13 H          59.7220   87.2855    7.7927 H       1  UNL1        0.1437
     14 H          59.9654   88.9176    8.2223 H       1  UNL1        0.1437
     15 N          62.4988   90.9251    9.9079 N.am    1  UNL1       -0.3252
     16 C          61.3429   90.0150   10.2007 C.2     1  UNL1        0.2455
     17 O          59.9477   90.5641   10.2416 O.2     1  UNL1       -0.2703
     18 H          62.3416   91.8828    9.7426 H       1  UNL1        0.1453
     19 H          63.4146   90.5647    9.8811 H       1  UNL1        0.1453
     20 C          63.3896   82.2874   12.6183 C.3     1  UNL1        0.4354
     21 F          63.6290   80.8282   12.8702 F       1  UNL1       -0.1644
     22 F          64.6656   82.3613   11.8333 F       1  UNL1       -0.1644
     23 F          62.1136   82.2136   13.4034 F       1  UNL1       -0.1644
@<TRIPOS>BOND
     1    15    16   am
     2    16    17    2
     3    16     1    1
     4     1     2   ar
     5     2     3   ar
     6     3     4   ar
     7     4     5   ar
     8     5     6    1
     9     5     7   ar
    10     7    20    1
    11    20    21    1
    12    20    22    1
    13    20    23    1
    14     7     8   ar
    15     8     9   ar
    16     9    10   ar
    17    10    11   ar
    18    11    12    1
    19    11     1   ar
    20     9     3   ar
    21    15    18    1
    22    15    19    1
    23    12    13    1
    24    12    14    1
@<TRIPOS>MOLECULE
*****
 23 24 0 0 0
SMALL
GASTEIGER

@<TRIPOS>ATOM
      1 C          63.1877   83.9151   12.9401 C.ar    1  UNL1        0.0843
      2 C          62.9626   85.2118   12.2205 C.ar    1  UNL1        0.0104
      3 C          63.3274   86.5087   12.8801 C.ar    1  UNL1        0.0366
      4 C          63.1022   87.8054   12.1605 C.ar    1  UNL1        0.0112
      5 C          63.4670   89.1023   12.8200 C.ar    1  UNL1        0.0563
      6 BR         63.2418   90.3990   12.1005 Br      1  UNL1       -0.0475
      7 C          64.0569   89.1024   14.1992 C.ar    1  UNL1        0.1604
      8 N          64.2820   87.8057   14.9188 N.ar    1  UNL1       -0.2221
      9 C          63.9173   86.5088   14.2592 C.ar    1  UNL1        0.1636
     10 N          64.1424   85.2121   14.9787 N.ar    1  UNL1       -0.2122
     11 C          63.7777   83.9152   14.3192 C.ar    1  UNL1        0.1314
     12 N          64.0028   82.6185   15.0388 N.pl3   1  UNL1       -0.3425
     13 H          64.3900   82.6186   15.9439 H       1  UNL1        0.1437
     14 H          63.7634   81.7672   14.6059 H       1  UNL1        0.1437
     15 N          63.3805   82.2810   10.9294 N.am    1  UNL1       -0.3252
     16 C          62.8230   82.6182   12.2805 C.2     1  UNL1        0.2455
     17 O          61.9007   81.6584   12.9720 O.2     1  UNL1       -0.2703
     18 H          63.1411   81.4298   10.4965 H       1  UNL1        0.1453
     19 H          63.9859   82.9109   10.4755 H       1  UNL1        0.1453
     20 C          64.4217   90.3993   14.8588 C.3     1  UNL1        0.4354
     21 F          64.7864   91.6962   15.5183 F       1  UNL1       -0.1644
     22 F          65.7048   90.4332   14.0826 F       1  UNL1       -0.1644
     23 F          63.1385   90.3655   15.6350 F       1  UNL1       -0.1644
@<TRIPOS>BOND
     1    15    16   am
     2    16    17    2
     3    16     1    1
     4     1     2   ar
     5     2     3   ar
     6     3     4   ar
     7     4     5   ar
     8     5     6    1
     9     5     7   ar
    10     7    20    1
    11    20    21    1
    12    20    22    1
    13    20    23    1
    14     7     8   ar
    15     8     9   ar
    16     9    10   ar
    17    10    11   ar
    18    11    12    1
    19    11     1   ar
    20     9     3   ar
    21    15    18    1
    22    15    19    1
    23    12    13    1
    24    12    14    1
@<TRIPOS>MOLECULE
*****
 23 24 0 0 0
SMALL
GASTEIGER

@<TRIPOS>ATOM
      1 C          63.5616   84.0996   11.8806 C.ar    1  UNL1        0.0843
      2 C          62.6996   85.2647   12.2670 C.ar    1  UNL1        0.0104
      3 C          61.9470   86.0226   11.2138 C.ar    1  UNL1        0.0366
      4 C          61.0849   87.1878   11.6002 C.ar    1  UNL1        0.0112
      5 C          60.3323   87.9458   10.5470 C.ar    1  UNL1        0.0563
      6 BR         59.4702   89.1109   10.9333 Br      1  UNL1       -0.0475
      7 C          60.4418   87.5385    9.1075 C.ar    1  UNL1        0.1604
      8 N          61.3039   86.3734    8.7211 N.ar    1  UNL1       -0.2221
      9 C          62.0565   85.6155    9.7743 C.ar    1  UNL1        0.1636
     10 N          62.9185   84.4503    9.3880 N.ar    1  UNL1       -0.2122
     11 C          63.6711   83.6924   10.4411 C.ar    1  UNL1        0.1314
     12 N          64.5332   82.5272   10.0548 N.pl3   1  UNL1       -0.3425
     13 H          64.6051   82.2600    9.1100 H       1  UNL1        0.1437
     14 H          65.0272   82.0297   10.7460 H       1  UNL1        0.1437
     15 N          65.1673   84.0789   13.9230 N.am    1  UNL1       -0.3252
     16 C          64.3142   83.3416   12.9338 C.2     1  UNL1        0.2455
     17 O          64.2137   81.8464   12.9977 O.2     1  UNL1       -0.2703
     18 H          65.6612   83.5815   14.6143 H       1  UNL1        0.1453
     19 H          65.2332   85.0603   13.8811 H       1  UNL1        0.1453
     20 C          59.6892   88.2964    8.0543 C.3     1  UNL1        0.4354
     21 F          58.9367   89.0544    7.0011 F       1  UNL1       -0.1644
     22 F          60.6700   89.4259    8.1663 F       1  UNL1       -0.1644
     23 F          58.7085   87.1670    7.9423 F       1  UNL1       -0.1644
@<TRIPOS>BOND
     1    15    16   am
     2    16    17    2
     3    16     1    1
     4     1     2   ar
     5     2     3   ar
     6     3     4   ar
     7     4     5   ar
     8     5     6    1
     9     5     7   ar
    10     7    20    1
    11    20    21    1
    12    20    22    1
    13    20    23    1
    14     7     8   ar
    15     8     9   ar
    16     9    10   ar
    17    10    11   ar
    18    11    12    1
    19    11     1   ar
    20     9     3   ar
    21    15    18    1
    22    15    19    1
    23    12    13    1
    24    12    14    1
@<TRIPOS>MOLECULE
*****
 23 24 0 0 0
SMALL
GASTEIGER

@<TRIPOS>ATOM
      1 C          63.8844   85.2199   13.5603 C.ar    1  UNL1        0.0843
      2 C          63.4663   86.5390   12.9815 C.ar    1  UNL1        0.0104
      3 C          62.5800   86.5802   11.7720 C.ar    1  UNL1        0.0366
      4 C          62.1619   87.8994   11.1932 C.ar    1  UNL1        0.0112
      5 C          61.2756   87.9406    9.9838 C.ar    1  UNL1        0.0563
      6 BR         60.8574   89.2598    9.4049 Br      1  UNL1       -0.0475
      7 C          60.8073   86.6627    9.3531 C.ar    1  UNL1        0.1604
      8 N          61.2255   85.3435    9.9320 N.ar    1  UNL1       -0.2221
      9 C          62.1118   85.3023   11.1414 C.ar    1  UNL1        0.1636
     10 N          62.5299   83.9832   11.7202 N.ar    1  UNL1       -0.2122
     11 C          63.4162   83.9420   12.9297 C.ar    1  UNL1        0.1314
     12 N          63.8343   82.6228   13.5085 N.pl3   1  UNL1       -0.3425
     13 H          63.5270   81.7841   13.0946 H       1  UNL1        0.1437
     14 H          64.4160   82.5958   14.3023 H       1  UNL1        0.1437
     15 N          66.2332   84.8821   14.6180 N.am    1  UNL1       -0.3252
     16 C          64.7707   85.1787   14.7697 C.2     1  UNL1        0.2455
     17 O          64.1945   85.4341   16.1309 O.2     1  UNL1       -0.2703
     18 H          66.8149   84.8550   15.4118 H       1  UNL1        0.1453
     19 H          66.6114   84.7144   13.7247 H       1  UNL1        0.1453
     20 C          59.9210   86.7039    8.1437 C.3     1  UNL1        0.4354
     21 F          59.0347   86.7451    6.9343 F       1  UNL1       -0.1644
     22 F          61.0825   86.3119    7.2792 F       1  UNL1       -0.1644
     23 F          58.7596   87.0958    9.0082 F       1  UNL1       -0.1644
@<TRIPOS>BOND
     1    15    16   am
     2    16    17    2
     3    16     1    1
     4     1     2   ar
     5     2     3   ar
     6     3     4   ar
     7     4     5   ar
     8     5     6    1
     9     5     7   ar
    10     7    20    1
    11    20    21    1
    12    20    22    1
    13    20    23    1
    14     7     8   ar
    15     8     9   ar
    16     9    10   ar
    17    10    11   ar
    18    11    12    1
    19    11     1   ar
    20     9     3   ar
    21    15    18    1
    22    15    19    1
    23    12    13    1
    24    12    14    1
@<TRIPOS>MOLECULE
*****
 23 24 0 0 0
SMALL
GASTEIGER

@<TRIPOS>ATOM
      1 C          63.5783   83.9697   13.6989 C.ar    1  UNL1        0.0843
      2 C          63.9838   85.3436   14.1436 C.ar    1  UNL1        0.0104
      3 C          63.5681   86.5435   13.3452 C.ar    1  UNL1        0.0366
      4 C          63.9737   87.9175   13.7899 C.ar    1  UNL1        0.0112
      5 C          63.5579   89.1174   12.9915 C.ar    1  UNL1        0.0563
      6 BR         63.9634   90.4914   13.4361 Br      1  UNL1       -0.0475
      7 C          62.7366   88.9433   11.7484 C.ar    1  UNL1        0.1604
      8 N          62.3310   87.5693   11.3038 N.ar    1  UNL1       -0.2221
      9 C          62.7468   86.3695   12.1022 C.ar    1  UNL1        0.1636
     10 N          62.3412   84.9955   11.6575 N.ar    1  UNL1       -0.2122
     11 C          62.7570   83.7956   12.4559 C.ar    1  UNL1        0.1314
     12 N          62.3514   82.4216   12.0112 N.pl3   1  UNL1       -0.3425
     13 H          61.8124   82.3074   11.1954 H       1  UNL1        0.1437
     14 H          62.6243   81.6341   12.5352 H       1  UNL1        0.1437
     15 N          64.6532   82.9491   15.8327 N.am    1  UNL1       -0.3252
     16 C          63.9941   82.7698   14.4973 C.2     1  UNL1        0.2455
     17 O          63.7507   81.3906   13.9603 O.2     1  UNL1       -0.2703
     18 H          64.9260   82.1616   16.3567 H       1  UNL1        0.1453
     19 H          64.8129   83.8544   16.1852 H       1  UNL1        0.1453
     20 C          62.3208   90.1432   10.9500 C.3     1  UNL1        0.4354
     21 F          61.9050   91.3431   10.1516 F       1  UNL1       -0.1644
     22 F          63.5533   90.0085   10.1058 F       1  UNL1       -0.1644
     23 F          61.0883   90.2778   11.7942 F       1  UNL1       -0.1644
@<TRIPOS>BOND
     1    15    16   am
     2    16    17    2
     3    16     1    1
     4     1     2   ar
     5     2     3   ar
     6     3     4   ar
     7     4     5   ar
     8     5     6    1
     9     5     7   ar
    10     7    20    1
    11    20    21    1
    12    20    22    1
    13    20    23    1
    14     7     8   ar
    15     8     9   ar
    16     9    10   ar
    17    10    11   ar
    18    11    12    1
    19    11     1   ar
    20     9     3   ar
    21    15    18    1
    22    15    19    1
    23    12    13    1
    24    12    14    1
