@<TRIPOS>MOLECULE
*****
 28 31 0 0 0
SMALL
GASTEIGER

@<TRIPOS>ATOM
      1 N          62.7667   84.9055   11.8718 N.pl3   1  UNL1       -0.3017
      2 C          63.5039   85.6476   12.9469 C.3     1  UNL1        0.1124
      3 C          63.4486   87.1457   12.9971 C.3     1  UNL1        0.1152
      4 N          62.6561   87.9018   11.9722 N.am    1  UNL1       -0.2714
      5 C          62.6008   89.3999   12.0224 C.2     1  UNL1        0.2663
      6 O          61.8083   90.1559   10.9975 O.2     1  UNL1       -0.2683
      7 C          61.9189   87.1597   10.8971 C.3     1  UNL1        0.1152
      8 C          61.9742   85.6615   10.8469 C.3     1  UNL1        0.1124
      9 C          62.3897   82.6006   13.0100 C.ar    1  UNL1        0.1519
     10 C          62.4450   81.1025   12.9597 C.ar    1  UNL1        0.0382
     11 C          62.9326   80.4111   11.7211 C.ar    1  UNL1        0.0032
     12 C          63.3649   81.2178   10.5327 C.ar    1  UNL1        0.0015
     13 C          63.3096   82.7159   10.5830 C.ar    1  UNL1        0.0176
     14 C          62.8220   83.4073   11.8216 C.ar    1  UNL1        0.0824
     15 C          62.8111   83.4393   15.4325 C.3     1  UNL1        0.2525
     16 O          61.9020   83.2920   14.2486 O.3     1  UNL1       -0.4702
     17 C          63.3380   90.1420   13.0975 C.ar    1  UNL1        0.1288
     18 C          64.7640   90.6026   13.0319 C.ar    1  UNL1        0.0439
     19 C          65.0860   91.2991   14.3208 C.ar    1  UNL1        0.1023
     20 N          63.8589   91.2690   15.1830 N.ar    1  UNL1       -0.1725
     21 N          62.7786   90.5539   14.4270 N.ar    1  UNL1       -0.2714
     22 H          61.8632   90.3846   14.7471 H       1  UNL1        0.1891
     23 C          66.4037   91.9171   14.6838 C.ar    1  UNL1        0.0194
     24 C          67.5924   91.7285   13.7887 C.ar    1  UNL1        0.0016
     25 C          68.9101   92.3465   14.1515 C.ar    1  UNL1        0.0000
     26 C          69.0390   93.1532   15.4096 C.ar    1  UNL1        0.0000
     27 C          67.8502   93.3418   16.3047 C.ar    1  UNL1        0.0000
     28 C          66.5326   92.7238   15.9418 C.ar    1  UNL1        0.0016
@<TRIPOS>BOND
     1    15    16    1
     2    16     9    1
     3     9    10   ar
     4    10    11   ar
     5    11    12   ar
     6    12    13   ar
     7    13    14   ar
     8    14     1    1
     9     1     2    1
    10     2     3    1
    11     3     4    1
    12     4     5   am
    13     5     6    2
    14     5    17    1
    15    17    18   ar
    16    18    19   ar
    17    19    23    1
    18    23    24   ar
    19    24    25   ar
    20    25    26   ar
    21    26    27   ar
    22    27    28   ar
    23    19    20   ar
    24    20    21   ar
    25     4     7    1
    26     7     8    1
    27    14     9   ar
    28     8     1    1
    29    21    17   ar
    30    28    23   ar
    31    21    22    1
@<TRIPOS>MOLECULE
*****
 28 31 0 0 0
SMALL
GASTEIGER

@<TRIPOS>ATOM
      1 N          66.0617   94.2436   11.5649 N.pl3   1  UNL1       -0.3017
      2 C          65.3058   92.9482   11.5431 C.3     1  UNL1        0.1124
      3 C          65.1091   92.1731   12.8121 C.3     1  UNL1        0.1152
      4 N          65.6683   92.6935   14.1031 N.am    1  UNL1       -0.2714
      5 C          65.4715   91.9185   15.3722 C.2     1  UNL1        0.2663
      6 O          66.0307   92.4389   16.6631 O.2     1  UNL1       -0.2683
      7 C          66.4242   93.9889   14.1250 C.3     1  UNL1        0.1152
      8 C          66.6209   94.7640   12.8558 C.3     1  UNL1        0.1124
      9 C          67.4400   94.7318    9.4173 C.ar    1  UNL1        0.1519
     10 C          67.6367   95.5068    8.1482 C.ar    1  UNL1        0.0382
     11 C          66.6518   96.5687    7.7576 C.ar    1  UNL1        0.0032
     12 C          65.4703   96.8555    8.6360 C.ar    1  UNL1        0.0015
     13 C          65.2736   96.0805    9.9051 C.ar    1  UNL1        0.0176
     14 C          66.2585   95.0186   10.2957 C.ar    1  UNL1        0.0824
     15 C          68.5881   92.4477    8.9539 C.3     1  UNL1        0.2525
     16 O          68.4248   93.6700    9.8079 O.3     1  UNL1       -0.4702
     17 C          64.7156   90.6231   15.3503 C.ar    1  UNL1        0.1288
     18 C          65.0916   89.3958   14.5741 C.ar    1  UNL1        0.0439
     19 C          64.0594   88.3417   14.8449 C.ar    1  UNL1        0.1023
     20 N          63.0454   88.9174   15.7885 N.ar    1  UNL1       -0.1725
     21 N          63.4510   90.3274   16.1009 N.ar    1  UNL1       -0.2714
     22 H          62.9714   90.9495   16.6943 H       1  UNL1        0.1891
     23 C          64.0438   86.9552   14.2726 C.ar    1  UNL1        0.0194
     24 C          64.8043   85.8550   14.9517 C.ar    1  UNL1        0.0016
     25 C          64.7888   84.4686   14.3795 C.ar    1  UNL1        0.0000
     26 C          64.0129   84.1824   13.1281 C.ar    1  UNL1        0.0000
     27 C          63.2524   85.2826   12.4490 C.ar    1  UNL1        0.0000
     28 C          63.2679   86.6690   13.0212 C.ar    1  UNL1        0.0016
@<TRIPOS>BOND
     1    15    16    1
     2    16     9    1
     3     9    10   ar
     4    10    11   ar
     5    11    12   ar
     6    12    13   ar
     7    13    14   ar
     8    14     1    1
     9     1     2    1
    10     2     3    1
    11     3     4    1
    12     4     5   am
    13     5     6    2
    14     5    17    1
    15    17    18   ar
    16    18    19   ar
    17    19    23    1
    18    23    24   ar
    19    24    25   ar
    20    25    26   ar
    21    26    27   ar
    22    27    28   ar
    23    19    20   ar
    24    20    21   ar
    25     4     7    1
    26     7     8    1
    27    14     9   ar
    28     8     1    1
    29    21    17   ar
    30    28    23   ar
    31    21    22    1
@<TRIPOS>MOLECULE
*****
 28 31 0 0 0
SMALL
GASTEIGER

@<TRIPOS>ATOM
      1 N          65.6529   93.3978   11.1791 N.pl3   1  UNL1       -0.3017
      2 C          64.9672   92.2145   10.5631 C.3     1  UNL1        0.1124
      3 C          64.5064   91.0799   11.4293 C.3     1  UNL1        0.1152
      4 N          64.7313   91.1287   12.9116 N.am    1  UNL1       -0.2714
      5 C          64.2705   89.9942   13.7779 C.2     1  UNL1        0.2663
      6 O          64.4955   90.0430   15.2601 O.2     1  UNL1       -0.2683
      7 C          65.4171   92.3121   13.5276 C.3     1  UNL1        0.1152
      8 C          65.8779   93.4466   12.6613 C.3     1  UNL1        0.1124
      9 C          67.4638   94.4783    9.6614 C.ar    1  UNL1        0.1519
     10 C          67.9246   95.6129    8.7951 C.ar    1  UNL1        0.0382
     11 C          67.0352   96.8015    8.5802 C.ar    1  UNL1        0.0032
     12 C          65.6851   96.8556    9.2315 C.ar    1  UNL1        0.0015
     13 C          65.2244   95.7211   10.0978 C.ar    1  UNL1        0.0176
     14 C          66.1137   94.5324   10.3127 C.ar    1  UNL1        0.0824
     15 C          68.6561   92.3637    8.7359 C.3     1  UNL1        0.2525
     16 O          68.3532   93.2897    9.8764 O.3     1  UNL1       -0.4702
     17 C          63.5847   88.8108   13.1619 C.ar    1  UNL1        0.1288
     18 C          63.8909   87.3695   13.4428 C.ar    1  UNL1        0.0439
     19 C          62.9678   86.5289   12.6114 C.ar    1  UNL1        0.1023
     20 N          62.0911   87.4507   11.8166 N.ar    1  UNL1       -0.1725
     21 N          62.4724   88.8610   12.1569 N.ar    1  UNL1       -0.2714
     22 H          62.0642   89.6763   11.7857 H       1  UNL1        0.1891
     23 C          62.9283   85.0298   12.5803 C.ar    1  UNL1        0.0194
     24 C          62.7539   84.2575   13.8543 C.ar    1  UNL1        0.0016
     25 C          62.7144   82.7584   13.8232 C.ar    1  UNL1        0.0000
     26 C          62.8494   82.0315   12.5181 C.ar    1  UNL1        0.0000
     27 C          63.0239   82.8038   11.2441 C.ar    1  UNL1        0.0000
     28 C          63.0634   84.3029   11.2751 C.ar    1  UNL1        0.0016
@<TRIPOS>BOND
     1    15    16    1
     2    16     9    1
     3     9    10   ar
     4    10    11   ar
     5    11    12   ar
     6    12    13   ar
     7    13    14   ar
     8    14     1    1
     9     1     2    1
    10     2     3    1
    11     3     4    1
    12     4     5   am
    13     5     6    2
    14     5    17    1
    15    17    18   ar
    16    18    19   ar
    17    19    23    1
    18    23    24   ar
    19    24    25   ar
    20    25    26   ar
    21    26    27   ar
    22    27    28   ar
    23    19    20   ar
    24    20    21   ar
    25     4     7    1
    26     7     8    1
    27    14     9   ar
    28     8     1    1
    29    21    17   ar
    30    28    23   ar
    31    21    22    1
@<TRIPOS>MOLECULE
*****
 28 31 0 0 0
SMALL
GASTEIGER

@<TRIPOS>ATOM
      1 N          63.2927   84.1236   13.5904 N.pl3   1  UNL1       -0.3017
      2 C          63.5693   85.5423   13.1892 C.3     1  UNL1        0.1124
      3 C          63.5391   86.6324   14.2190 C.3     1  UNL1        0.1152
      4 N          63.2324   86.3040   15.6501 N.am    1  UNL1       -0.2714
      5 C          63.2023   87.3942   16.6799 C.2     1  UNL1        0.2663
      6 O          62.8955   87.0658   18.1110 O.2     1  UNL1       -0.2683
      7 C          62.9558   84.8854   16.0514 C.3     1  UNL1        0.1152
      8 C          62.9860   83.7952   15.0215 C.3     1  UNL1        0.1124
      9 C          62.6424   81.7248   12.8334 C.ar    1  UNL1        0.1519
     10 C          62.6726   80.6347   11.8036 C.ar    1  UNL1        0.0382
     11 C          63.3832   80.8532   10.5008 C.ar    1  UNL1        0.0032
     12 C          64.0637   82.1618   10.2278 C.ar    1  UNL1        0.0015
     13 C          64.0335   83.2519   11.2577 C.ar    1  UNL1        0.0176
     14 C          63.3228   83.0334   12.5605 C.ar    1  UNL1        0.0824
     15 C          60.6314   80.7593   14.1652 C.3     1  UNL1        0.2525
     16 O          61.9318   81.5064   14.1362 O.3     1  UNL1       -0.4702
     17 C          63.4788   88.8128   16.2787 C.ar    1  UNL1        0.1288
     18 C          64.2502   89.2528   15.0698 C.ar    1  UNL1        0.0439
     19 C          64.2807   90.7524   15.0598 C.ar    1  UNL1        0.1023
     20 N          63.5282   91.2394   16.2625 N.ar    1  UNL1       -0.1725
     21 N          63.0326   90.0406   17.0158 N.ar    1  UNL1       -0.2714
     22 H          62.5068   90.0568   17.8480 H       1  UNL1        0.1891
     23 C          64.9468   91.6139   14.0282 C.ar    1  UNL1        0.0194
     24 C          64.5065   91.5451   12.5960 C.ar    1  UNL1        0.0016
     25 C          65.1726   92.4065   11.5644 C.ar    1  UNL1        0.0000
     26 C          66.2790   93.3367   11.9650 C.ar    1  UNL1        0.0000
     27 C          66.7193   93.4055   13.3973 C.ar    1  UNL1        0.0000
     28 C          66.0533   92.5441   14.4289 C.ar    1  UNL1        0.0016
@<TRIPOS>BOND
     1    15    16    1
     2    16     9    1
     3     9    10   ar
     4    10    11   ar
     5    11    12   ar
     6    12    13   ar
     7    13    14   ar
     8    14     1    1
     9     1     2    1
    10     2     3    1
    11     3     4    1
    12     4     5   am
    13     5     6    2
    14     5    17    1
    15    17    18   ar
    16    18    19   ar
    17    19    23    1
    18    23    24   ar
    19    24    25   ar
    20    25    26   ar
    21    26    27   ar
    22    27    28   ar
    23    19    20   ar
    24    20    21   ar
    25     4     7    1
    26     7     8    1
    27    14     9   ar
    28     8     1    1
    29    21    17   ar
    30    28    23   ar
    31    21    22    1
@<TRIPOS>MOLECULE
*****
 28 31 0 0 0
SMALL
GASTEIGER

@<TRIPOS>ATOM
      1 N          64.5174   89.9843   14.9155 N.pl3   1  UNL1       -0.3017
      2 C          64.6664   88.6848   14.1811 C.3     1  UNL1        0.1124
      3 C          64.0605   87.4326   14.7421 C.3     1  UNL1        0.1152
      4 N          63.3057   87.4797   16.0375 N.am    1  UNL1       -0.2714
      5 C          62.6998   86.2275   16.5985 C.2     1  UNL1        0.2663
      6 O          61.9450   86.2746   17.8939 O.2     1  UNL1       -0.2683
      7 C          63.1567   88.7791   16.7719 C.3     1  UNL1        0.1152
      8 C          63.7626   90.0314   16.2108 C.3     1  UNL1        0.1124
      9 C          64.8057   91.6598   12.9509 C.ar    1  UNL1        0.1519
     10 C          65.4116   92.9120   12.3899 C.ar    1  UNL1        0.0382
     11 C          66.3351   93.7410   13.2325 C.ar    1  UNL1        0.0032
     12 C          66.6527   93.3178   14.6360 C.ar    1  UNL1        0.0015
     13 C          66.0468   92.0656   15.1970 C.ar    1  UNL1        0.0176
     14 C          65.1233   91.2366   14.3544 C.ar    1  UNL1        0.0824
     15 C          63.5367   91.2726   10.7172 C.3     1  UNL1        0.2525
     16 O          63.8822   90.8308   12.1083 O.3     1  UNL1       -0.4702
     17 C          62.8488   84.9280   15.8641 C.ar    1  UNL1        0.1288
     18 C          62.9988   84.7659   14.3805 C.ar    1  UNL1        0.0439
     19 C          63.1166   83.3003   14.0838 C.ar    1  UNL1        0.1023
     20 N          63.0393   82.5565   15.3842 N.ar    1  UNL1       -0.1725
     21 N          62.8738   83.5625   16.4844 N.ar    1  UNL1       -0.2714
     22 H          62.7953   83.3618   17.4450 H       1  UNL1        0.1891
     23 C          63.2825   82.6862   12.7254 C.ar    1  UNL1        0.0194
     24 C          62.7643   81.3041   12.4588 C.ar    1  UNL1        0.0016
     25 C          62.9302   80.6900   11.1004 C.ar    1  UNL1        0.0000
     26 C          63.6143   81.4580   10.0086 C.ar    1  UNL1        0.0000
     27 C          64.1326   82.8402   10.2752 C.ar    1  UNL1        0.0000
     28 C          63.9667   83.4543   11.6336 C.ar    1  UNL1        0.0016
@<TRIPOS>BOND
     1    15    16    1
     2    16     9    1
     3     9    10   ar
     4    10    11   ar
     5    11    12   ar
     6    12    13   ar
     7    13    14   ar
     8    14     1    1
     9     1     2    1
    10     2     3    1
    11     3     4    1
    12     4     5   am
    13     5     6    2
    14     5    17    1
    15    17    18   ar
    16    18    19   ar
    17    19    23    1
    18    23    24   ar
    19    24    25   ar
    20    25    26   ar
    21    26    27   ar
    22    27    28   ar
    23    19    20   ar
    24    20    21   ar
    25     4     7    1
    26     7     8    1
    27    14     9   ar
    28     8     1    1
    29    21    17   ar
    30    28    23   ar
    31    21    22    1
@<TRIPOS>MOLECULE
*****
 28 31 0 0 0
SMALL
GASTEIGER

@<TRIPOS>ATOM
      1 N          63.0473   83.8340   13.9961 N.pl3   1  UNL1       -0.3017
      2 C          63.3787   85.1888   13.4442 C.3     1  UNL1        0.1124
      3 C          63.4155   86.3809   14.3539 C.3     1  UNL1        0.1152
      4 N          63.1210   86.2181   15.8157 N.am    1  UNL1       -0.2714
      5 C          63.1578   87.4101   16.7255 C.2     1  UNL1        0.2663
      6 O          62.8633   87.2474   18.1872 O.2     1  UNL1       -0.2683
      7 C          62.7896   84.8633   16.3677 C.3     1  UNL1        0.1152
      8 C          62.7528   83.6713   15.4579 C.3     1  UNL1        0.1124
      9 C          63.3070   82.8044   11.6250 C.ar    1  UNL1        0.1519
     10 C          63.2702   81.6124   10.7152 C.ar    1  UNL1        0.0382
     11 C          62.9368   80.2579   11.2668 C.ar    1  UNL1        0.0032
     12 C          62.6403   80.0955   12.7282 C.ar    1  UNL1        0.0015
     13 C          62.6771   81.2875   13.6379 C.ar    1  UNL1        0.0176
     14 C          63.0105   82.6420   13.0863 C.ar    1  UNL1        0.0824
     15 C          63.3258   84.4845    9.6433 C.3     1  UNL1        0.2525
     16 O          63.6404   84.1589   11.0733 O.3     1  UNL1       -0.4702
     17 C          63.4892   88.7649   16.1735 C.ar    1  UNL1        0.1288
     18 C          64.2703   89.0406   14.9229 C.ar    1  UNL1        0.0439
     19 C          64.3615   90.5280   14.7517 C.ar    1  UNL1        0.1023
     20 N          63.6368   91.1716   15.8964 N.ar    1  UNL1       -0.1725
     21 N          63.0977   90.0820   16.7751 N.ar    1  UNL1       -0.2714
     22 H          62.5781   90.2090   17.6017 H       1  UNL1        0.1891
     23 C          65.0556   91.2457   13.6322 C.ar    1  UNL1        0.0194
     24 C          64.3312   91.5054   12.3447 C.ar    1  UNL1        0.0016
     25 C          65.0252   92.2231   11.2253 C.ar    1  UNL1        0.0000
     26 C          66.4437   92.6810   11.3934 C.ar    1  UNL1        0.0000
     27 C          67.1681   92.4212   12.6809 C.ar    1  UNL1        0.0000
     28 C          66.4741   91.7036   13.8003 C.ar    1  UNL1        0.0016
@<TRIPOS>BOND
     1    15    16    1
     2    16     9    1
     3     9    10   ar
     4    10    11   ar
     5    11    12   ar
     6    12    13   ar
     7    13    14   ar
     8    14     1    1
     9     1     2    1
    10     2     3    1
    11     3     4    1
    12     4     5   am
    13     5     6    2
    14     5    17    1
    15    17    18   ar
    16    18    19   ar
    17    19    23    1
    18    23    24   ar
    19    24    25   ar
    20    25    26   ar
    21    26    27   ar
    22    27    28   ar
    23    19    20   ar
    24    20    21   ar
    25     4     7    1
    26     7     8    1
    27    14     9   ar
    28     8     1    1
    29    21    17   ar
    30    28    23   ar
    31    21    22    1
@<TRIPOS>MOLECULE
*****
 28 31 0 0 0
SMALL
GASTEIGER

@<TRIPOS>ATOM
      1 N          63.4141   89.7077   12.7020 N.pl3   1  UNL1       -0.3017
      2 C          62.5170   90.2449   11.6265 C.3     1  UNL1        0.1124
      3 C          61.7675   89.3006   10.7341 C.3     1  UNL1        0.1152
      4 N          61.9150   87.8191   10.9171 N.am    1  UNL1       -0.2714
      5 C          61.1654   86.8748   10.0247 C.2     1  UNL1        0.2663
      6 O          61.3129   85.3934   10.2078 O.2     1  UNL1       -0.2683
      7 C          62.8120   87.2819   11.9926 C.3     1  UNL1        0.1152
      8 C          63.5616   88.2263   12.8851 C.3     1  UNL1        0.1124
      9 C          63.8326   90.7253   15.0556 C.ar    1  UNL1        0.1519
     10 C          64.5821   91.6696   15.9480 C.ar    1  UNL1        0.0382
     11 C          65.6627   92.5408   15.3792 C.ar    1  UNL1        0.0032
     12 C          65.9937   92.4676   13.9181 C.ar    1  UNL1        0.0015
     13 C          65.2442   91.5232   13.0257 C.ar    1  UNL1        0.0176
     14 C          64.1636   90.6521   13.5945 C.ar    1  UNL1        0.0824
     15 C          63.0737   88.8756   16.7147 C.3     1  UNL1        0.2525
     16 O          62.7520   89.8542   15.6244 O.3     1  UNL1       -0.4702
     17 C          60.2684   87.4120    8.9492 C.ar    1  UNL1        0.1288
     18 C          60.4923   88.6676    8.1598 C.ar    1  UNL1        0.0439
     19 C          59.3522   88.8195    7.1969 C.ar    1  UNL1        0.1023
     20 N          58.4236   87.6576    7.3912 N.ar    1  UNL1       -0.1725
     21 N          58.9898   86.7878    8.4741 N.ar    1  UNL1       -0.2714
     22 H          58.5921   85.9536    8.8136 H       1  UNL1        0.1891
     23 C          59.1724   89.9370    6.2126 C.ar    1  UNL1        0.0194
     24 C          60.3668   90.5342    5.5295 C.ar    1  UNL1        0.0016
     25 C          60.1870   91.6516    4.5452 C.ar    1  UNL1        0.0000
     26 C          58.8127   92.1719    4.2440 C.ar    1  UNL1        0.0000
     27 C          57.6183   91.5747    4.9271 C.ar    1  UNL1        0.0000
     28 C          57.7981   90.4572    5.9114 C.ar    1  UNL1        0.0016
@<TRIPOS>BOND
     1    15    16    1
     2    16     9    1
     3     9    10   ar
     4    10    11   ar
     5    11    12   ar
     6    12    13   ar
     7    13    14   ar
     8    14     1    1
     9     1     2    1
    10     2     3    1
    11     3     4    1
    12     4     5   am
    13     5     6    2
    14     5    17    1
    15    17    18   ar
    16    18    19   ar
    17    19    23    1
    18    23    24   ar
    19    24    25   ar
    20    25    26   ar
    21    26    27   ar
    22    27    28   ar
    23    19    20   ar
    24    20    21   ar
    25     4     7    1
    26     7     8    1
    27    14     9   ar
    28     8     1    1
    29    21    17   ar
    30    28    23   ar
    31    21    22    1
@<TRIPOS>MOLECULE
*****
 28 31 0 0 0
SMALL
GASTEIGER

@<TRIPOS>ATOM
      1 N          63.0571   84.0305   14.0040 N.pl3   1  UNL1       -0.3017
      2 C          63.4359   85.3578   13.4168 C.3     1  UNL1        0.1124
      3 C          63.4796   86.5782   14.2877 C.3     1  UNL1        0.1152
      4 N          63.1444   86.4715   15.7459 N.am    1  UNL1       -0.2714
      5 C          63.1881   87.6919   16.6168 C.2     1  UNL1        0.2663
      6 O          62.8529   87.5851   18.0750 O.2     1  UNL1       -0.2683
      7 C          62.7656   85.1442   16.3332 C.3     1  UNL1        0.1152
      8 C          62.7219   83.9237   15.4622 C.3     1  UNL1        0.1124
      9 C          63.3048   82.9246   11.6661 C.ar    1  UNL1        0.1519
     10 C          63.2611   81.7041   10.7952 C.ar    1  UNL1        0.0382
     11 C          62.9261   80.3690   11.3913 C.ar    1  UNL1        0.0032
     12 C          62.6347   80.2544   12.8582 C.ar    1  UNL1        0.0015
     13 C          62.6784   81.4749   13.7291 C.ar    1  UNL1        0.0176
     14 C          63.0134   82.8100   13.1331 C.ar    1  UNL1        0.0824
     15 C          62.5802   85.0535   10.3651 C.3     1  UNL1        0.2525
     16 O          63.6398   84.2597   11.0701 O.3     1  UNL1       -0.4702
     17 C          63.5670   89.0192   16.0296 C.ar    1  UNL1        0.1288
     18 C          64.2173   89.2400   14.6961 C.ar    1  UNL1        0.0439
     19 C          64.4143   90.7160   14.5151 C.ar    1  UNL1        0.1023
     20 N          63.8856   91.4074   15.7367 N.ar    1  UNL1       -0.1725
     21 N          63.3619   90.3587   16.6727 N.ar    1  UNL1       -0.2714
     22 H          62.9551   90.5211   17.5544 H       1  UNL1        0.1891
     23 C          65.0315   91.3833   13.3219 C.ar    1  UNL1        0.0194
     24 C          66.4545   91.8544   13.3787 C.ar    1  UNL1        0.0016
     25 C          67.0717   92.5217   12.1856 C.ar    1  UNL1        0.0000
     26 C          66.2660   92.7180   10.9356 C.ar    1  UNL1        0.0000
     27 C          64.8431   92.2469   10.8789 C.ar    1  UNL1        0.0000
     28 C          64.2258   91.5795   12.0719 C.ar    1  UNL1        0.0016
@<TRIPOS>BOND
     1    15    16    1
     2    16     9    1
     3     9    10   ar
     4    10    11   ar
     5    11    12   ar
     6    12    13   ar
     7    13    14   ar
     8    14     1    1
     9     1     2    1
    10     2     3    1
    11     3     4    1
    12     4     5   am
    13     5     6    2
    14     5    17    1
    15    17    18   ar
    16    18    19   ar
    17    19    23    1
    18    23    24   ar
    19    24    25   ar
    20    25    26   ar
    21    26    27   ar
    22    27    28   ar
    23    19    20   ar
    24    20    21   ar
    25     4     7    1
    26     7     8    1
    27    14     9   ar
    28     8     1    1
    29    21    17   ar
    30    28    23   ar
    31    21    22    1
@<TRIPOS>MOLECULE
*****
 28 31 0 0 0
SMALL
GASTEIGER

@<TRIPOS>ATOM
      1 N          63.7668   90.2882   12.4763 N.pl3   1  UNL1       -0.3017
      2 C          62.9194   90.7261   11.3187 C.3     1  UNL1        0.1124
      3 C          62.0565   89.7304   10.6019 C.3     1  UNL1        0.1152
      4 N          62.0410   88.2967   11.0426 N.am    1  UNL1       -0.2714
      5 C          61.1781   87.3009   10.3258 C.2     1  UNL1        0.2663
      6 O          61.1627   85.8673   10.7666 O.2     1  UNL1       -0.2683
      7 C          62.8885   87.8587   12.2002 C.3     1  UNL1        0.1152
      8 C          63.7514   88.8545   12.9171 C.3     1  UNL1        0.1124
      9 C          65.3448   92.3514   12.4190 C.ar    1  UNL1        0.1519
     10 C          66.2077   93.3471   13.1359 C.ar    1  UNL1        0.0382
     11 C          66.3555   93.2755   14.6269 C.ar    1  UNL1        0.0032
     12 C          65.6404   92.2081   15.4010 C.ar    1  UNL1        0.0015
     13 C          64.7775   91.2124   14.6841 C.ar    1  UNL1        0.0176
     14 C          64.6298   91.2840   13.1932 C.ar    1  UNL1        0.0824
     15 C          66.2128   93.1621   10.1083 C.3     1  UNL1        0.2525
     16 O          65.1971   92.4230   10.9280 O.3     1  UNL1       -0.4702
     17 C          60.3307   87.7389    9.1682 C.ar    1  UNL1        0.1288
     18 C          60.5495   88.9623    8.3283 C.ar    1  UNL1        0.0439
     19 C          59.4697   89.0098    7.2882 C.ar    1  UNL1        0.1023
     20 N          58.5835   87.8158    7.4853 N.ar    1  UNL1       -0.1725
     21 N          59.1156   87.0303    8.6471 N.ar    1  UNL1       -0.2714
     22 H          58.7343   86.1961    9.0049 H       1  UNL1        0.1891
     23 C          59.3051   90.0660    6.2359 C.ar    1  UNL1        0.0194
     24 C          60.5092   90.6163    5.5308 C.ar    1  UNL1        0.0016
     25 C          60.3446   91.6724    4.4785 C.ar    1  UNL1        0.0000
     26 C          58.9758   92.1783    4.1313 C.ar    1  UNL1        0.0000
     27 C          57.7717   91.6280    4.8364 C.ar    1  UNL1        0.0000
     28 C          57.9363   90.5719    5.8887 C.ar    1  UNL1        0.0016
@<TRIPOS>BOND
     1    15    16    1
     2    16     9    1
     3     9    10   ar
     4    10    11   ar
     5    11    12   ar
     6    12    13   ar
     7    13    14   ar
     8    14     1    1
     9     1     2    1
    10     2     3    1
    11     3     4    1
    12     4     5   am
    13     5     6    2
    14     5    17    1
    15    17    18   ar
    16    18    19   ar
    17    19    23    1
    18    23    24   ar
    19    24    25   ar
    20    25    26   ar
    21    26    27   ar
    22    27    28   ar
    23    19    20   ar
    24    20    21   ar
    25     4     7    1
    26     7     8    1
    27    14     9   ar
    28     8     1    1
    29    21    17   ar
    30    28    23   ar
    31    21    22    1
