@<TRIPOS>MOLECULE
*****
 26 27 0 0 0
SMALL
GASTEIGER

@<TRIPOS>ATOM
      1 C          65.9995   92.0771   12.9612 C.3     1  UNL1        0.1684
      2 C          66.5291   93.9184   11.2064 C.2     1  UNL1        0.2372
      3 O          66.1145   94.9737   12.1886 O.2     1  UNL1       -0.2736
      4 N          66.4716   92.4702   11.5927 N.am    1  UNL1       -0.2925
      5 H          66.7437   91.7776   10.9481 H       1  UNL1        0.1504
      6 C          67.0013   94.3115    9.8380 C.3     1  UNL1        0.1283
      7 N          66.1241   95.1468    8.9532 N.3     1  UNL1       -0.3150
      8 H          65.2511   95.3543    9.4381 H       1  UNL1        0.1192
      9 H          65.9225   94.6354    8.0939 H       1  UNL1        0.1192
     10 C          68.5605   92.4523    8.9097 C.3     1  UNL1        0.0019
     11 C          68.3506   93.8694    9.3544 C.3     1  UNL1        0.0248
     12 C          66.9806   91.9684   14.0906 C.1     1  UNL1        0.0927
     13 N          67.9618   91.8597   15.2200 N.1     1  UNL1       -0.1942
     14 C          64.5462   91.7928   13.2002 C.3     1  UNL1        0.0616
     15 C          63.8077   90.8507   12.2962 C.ar    1  UNL1       -0.0194
     16 C          63.3466   91.3136   10.9460 C.ar    1  UNL1       -0.0042
     17 C          62.6082   90.3715   10.0420 C.ar    1  UNL1       -0.0003
     18 C          62.3308   88.9666   10.4882 C.ar    1  UNL1       -0.0000
     19 C          62.7919   88.5037   11.8384 C.ar    1  UNL1       -0.0003
     20 C          63.5304   89.4457   12.7424 C.ar    1  UNL1       -0.0042
     21 C          61.5923   88.0245    9.5843 C.ar    1  UNL1       -0.0000
     22 C          62.2127   86.7145    9.1981 C.ar    1  UNL1       -0.0000
     23 C          61.4742   85.7725    8.2942 C.ar    1  UNL1        0.0000
     24 C          60.1154   86.1404    7.7763 C.ar    1  UNL1        0.0000
     25 C          59.4950   87.4503    8.1624 C.ar    1  UNL1        0.0000
     26 C          60.2335   88.3924    9.0664 C.ar    1  UNL1       -0.0000
@<TRIPOS>BOND
     1    10    11    1
     2    11     6    1
     3     6     7    1
     4     6     2    1
     5     2     3    2
     6     2     4   am
     7     4     1    1
     8     1    12    1
     9    12    13    3
    10     1    14    1
    11    14    15    1
    12    15    16   ar
    13    16    17   ar
    14    17    18   ar
    15    18    21    1
    16    21    22   ar
    17    22    23   ar
    18    23    24   ar
    19    24    25   ar
    20    25    26   ar
    21    18    19   ar
    22    19    20   ar
    23    20    15   ar
    24    26    21   ar
    25     7     8    1
    26     7     9    1
    27     4     5    1
@<TRIPOS>MOLECULE
*****
 26 27 0 0 0
SMALL
GASTEIGER

@<TRIPOS>ATOM
      1 C          66.0444   92.7851   12.7460 C.3     1  UNL1        0.1684
      2 C          66.4842   94.6693   11.0120 C.2     1  UNL1        0.2372
      3 O          67.4508   93.7786   10.2893 O.2     1  UNL1       -0.2736
      4 N          65.7810   94.1726   12.2403 N.am    1  UNL1       -0.2925
      5 H          65.1466   94.7572   12.7147 H       1  UNL1        0.1504
      6 C          66.2208   96.0568   10.5064 C.3     1  UNL1        0.1283
      7 N          64.9662   96.7751   10.9061 N.3     1  UNL1       -0.3150
      8 H          64.4123   96.1767   11.5190 H       1  UNL1        0.1192
      9 H          64.4242   97.0024   10.0725 H       1  UNL1        0.1192
     10 C          67.0723   96.6006    8.1129 C.3     1  UNL1        0.0019
     11 C          67.2121   96.7259    9.6011 C.3     1  UNL1        0.0248
     12 C          67.4316   92.2172   12.6900 C.1     1  UNL1        0.0927
     13 N          68.8188   91.6493   12.6341 N.1     1  UNL1       -0.1942
     14 C          64.9206   91.9656   13.3075 C.3     1  UNL1        0.0616
     15 C          64.1114   91.0832   12.4038 C.ar    1  UNL1       -0.0194
     16 C          63.7586   91.5472   11.0217 C.ar    1  UNL1       -0.0042
     17 C          62.9495   90.6649   10.1181 C.ar    1  UNL1       -0.0003
     18 C          62.4931   89.3185   10.5964 C.ar    1  UNL1       -0.0000
     19 C          62.8458   88.8545   11.9785 C.ar    1  UNL1       -0.0003
     20 C          63.6550   89.7368   12.8822 C.ar    1  UNL1       -0.0042
     21 C          61.6839   88.4361    9.6927 C.ar    1  UNL1       -0.0000
     22 C          62.1001   87.0132    9.4646 C.ar    1  UNL1       -0.0000
     23 C          61.2909   86.1308    8.5609 C.ar    1  UNL1        0.0000
     24 C          60.0656   86.6713    7.8854 C.ar    1  UNL1        0.0000
     25 C          59.6494   88.0943    8.1135 C.ar    1  UNL1        0.0000
     26 C          60.4586   88.9766    9.0172 C.ar    1  UNL1       -0.0000
@<TRIPOS>BOND
     1    10    11    1
     2    11     6    1
     3     6     7    1
     4     6     2    1
     5     2     3    2
     6     2     4   am
     7     4     1    1
     8     1    12    1
     9    12    13    3
    10     1    14    1
    11    14    15    1
    12    15    16   ar
    13    16    17   ar
    14    17    18   ar
    15    18    21    1
    16    21    22   ar
    17    22    23   ar
    18    23    24   ar
    19    24    25   ar
    20    25    26   ar
    21    18    19   ar
    22    19    20   ar
    23    20    15   ar
    24    26    21   ar
    25     7     8    1
    26     7     9    1
    27     4     5    1
@<TRIPOS>MOLECULE
*****
 26 27 0 0 0
SMALL
GASTEIGER

@<TRIPOS>ATOM
      1 C          64.2340   90.4485   14.4072 C.3     1  UNL1        0.1684
      2 C          66.3330   91.8285   15.0703 C.2     1  UNL1        0.2372
      3 O          65.4905   92.6729   15.9798 O.2     1  UNL1       -0.2736
      4 N          65.7048   90.7163   14.2841 N.am    1  UNL1       -0.2925
      5 H          66.2577   90.1621   13.6871 H       1  UNL1        0.1504
      6 C          67.8038   92.0963   14.9472 C.3     1  UNL1        0.1283
      7 N          68.5151   91.7989   13.6605 N.3     1  UNL1       -0.3150
      8 H          67.8508   91.4231   12.9838 H       1  UNL1        0.1192
      9 H          69.2520   91.1142   13.8297 H       1  UNL1        0.1192
     10 C          69.1506   94.0391   16.0249 C.3     1  UNL1        0.0019
     11 C          68.5633   92.6615   16.1107 C.3     1  UNL1        0.0248
     12 C          63.6923   89.7903   15.6415 C.1     1  UNL1        0.0927
     13 N          63.1506   89.1321   16.8757 N.1     1  UNL1       -0.1942
     14 C          63.3049   90.8389   13.2962 C.3     1  UNL1        0.0616
     15 C          62.9466   89.8429   12.2333 C.ar    1  UNL1       -0.0194
     16 C          62.4192   90.3146   10.9107 C.ar    1  UNL1       -0.0042
     17 C          62.0609   89.3186    9.8478 C.ar    1  UNL1       -0.0003
     18 C          62.2300   87.8510   10.1076 C.ar    1  UNL1       -0.0000
     19 C          62.7574   87.3794   11.4302 C.ar    1  UNL1       -0.0003
     20 C          63.1157   88.3753   12.4930 C.ar    1  UNL1       -0.0042
     21 C          61.8716   86.8551    9.0447 C.ar    1  UNL1       -0.0000
     22 C          60.4830   86.8297    8.4782 C.ar    1  UNL1       -0.0000
     23 C          60.1247   85.8337    7.4154 C.ar    1  UNL1        0.0000
     24 C          61.1550   84.8632    6.9189 C.ar    1  UNL1        0.0000
     25 C          62.5436   84.8887    7.4854 C.ar    1  UNL1        0.0000
     26 C          62.9020   85.8846    8.5483 C.ar    1  UNL1       -0.0000
@<TRIPOS>BOND
     1    10    11    1
     2    11     6    1
     3     6     7    1
     4     6     2    1
     5     2     3    2
     6     2     4   am
     7     4     1    1
     8     1    12    1
     9    12    13    3
    10     1    14    1
    11    14    15    1
    12    15    16   ar
    13    16    17   ar
    14    17    18   ar
    15    18    21    1
    16    21    22   ar
    17    22    23   ar
    18    23    24   ar
    19    24    25   ar
    20    25    26   ar
    21    18    19   ar
    22    19    20   ar
    23    20    15   ar
    24    26    21   ar
    25     7     8    1
    26     7     9    1
    27     4     5    1
@<TRIPOS>MOLECULE
*****
 26 27 0 0 0
SMALL
GASTEIGER

@<TRIPOS>ATOM
      1 C          66.5331   91.7218   14.3194 C.3     1  UNL1        0.1684
      2 C          66.6102   93.4792   12.4075 C.2     1  UNL1        0.2372
      3 O          66.0965   94.5270   13.3499 O.2     1  UNL1       -0.2736
      4 N          66.8285   92.0766   12.8922 N.am    1  UNL1       -0.2925
      5 H          67.1657   91.3889   12.2736 H       1  UNL1        0.1504
      6 C          66.9055   93.8341   10.9802 C.3     1  UNL1        0.1283
      7 N          67.0075   95.2736   10.5710 N.3     1  UNL1       -0.3150
      8 H          66.8497   95.8700   11.3833 H       1  UNL1        0.1192
      9 H          66.3051   95.4753    9.8595 H       1  UNL1        0.1192
     10 C          68.4805   92.3925    9.5000 C.3     1  UNL1        0.0019
     11 C          67.0989   92.7495    9.9623 C.3     1  UNL1        0.0248
     12 C          67.5690   91.9528   15.3795 C.1     1  UNL1        0.0927
     13 N          68.6048   92.1838   16.4395 N.1     1  UNL1       -0.1942
     14 C          65.2020   91.1360   14.6866 C.3     1  UNL1        0.0616
     15 C          64.3776   90.4369   13.6465 C.ar    1  UNL1       -0.0194
     16 C          64.1711   88.9534   13.7257 C.ar    1  UNL1       -0.0042
     17 C          63.3468   88.2543   12.6856 C.ar    1  UNL1       -0.0003
     18 C          62.7290   89.0388   11.5663 C.ar    1  UNL1       -0.0000
     19 C          62.9355   90.5224   11.4871 C.ar    1  UNL1       -0.0003
     20 C          63.7598   91.2214   12.5272 C.ar    1  UNL1       -0.0042
     21 C          61.9046   88.3397   10.5263 C.ar    1  UNL1       -0.0000
     22 C          61.9893   86.8494   10.3792 C.ar    1  UNL1       -0.0000
     23 C          61.1649   86.1503    9.3391 C.ar    1  UNL1        0.0000
     24 C          60.2559   86.9416    8.4461 C.ar    1  UNL1        0.0000
     25 C          60.1713   88.4320    8.5931 C.ar    1  UNL1        0.0000
     26 C          60.9956   89.1310    9.6332 C.ar    1  UNL1       -0.0000
@<TRIPOS>BOND
     1    10    11    1
     2    11     6    1
     3     6     7    1
     4     6     2    1
     5     2     3    2
     6     2     4   am
     7     4     1    1
     8     1    12    1
     9    12    13    3
    10     1    14    1
    11    14    15    1
    12    15    16   ar
    13    16    17   ar
    14    17    18   ar
    15    18    21    1
    16    21    22   ar
    17    22    23   ar
    18    23    24   ar
    19    24    25   ar
    20    25    26   ar
    21    18    19   ar
    22    19    20   ar
    23    20    15   ar
    24    26    21   ar
    25     7     8    1
    26     7     9    1
    27     4     5    1
@<TRIPOS>MOLECULE
*****
 26 27 0 0 0
SMALL
GASTEIGER

@<TRIPOS>ATOM
      1 C          61.2116   88.9261   10.5572 C.3     1  UNL1        0.1684
      2 C          62.2993   86.5675   10.6210 C.2     1  UNL1        0.2372
      3 O          62.5238   86.7110   12.0971 O.2     1  UNL1       -0.2736
      4 N          61.6432   87.6751    9.8510 N.am    1  UNL1       -0.2925
      5 H          61.4959   87.5809    8.8822 H       1  UNL1        0.1504
      6 C          62.7309   85.3165    9.9147 C.3     1  UNL1        0.1283
      7 N          62.7611   85.2739    8.4157 N.3     1  UNL1       -0.3150
      8 H          62.4595   86.1745    8.0438 H       1  UNL1        0.1192
      9 H          62.1334   84.5416    8.0837 H       1  UNL1        0.1192
     10 C          63.9518   83.0282   10.0656 C.3     1  UNL1        0.0019
     11 C          63.1325   84.1082   10.7076 C.3     1  UNL1        0.0248
     12 C          60.0519   88.8886   11.5078 C.1     1  UNL1        0.0927
     13 N          58.8921   88.8511   12.4584 N.1     1  UNL1       -0.1942
     14 C          61.9396   90.2146   10.3128 C.3     1  UNL1        0.0616
     15 C          63.0370   90.6437   11.2411 C.ar    1  UNL1       -0.0194
     16 C          64.0205   91.6896   10.8068 C.ar    1  UNL1       -0.0042
     17 C          65.1178   92.1188   11.7351 C.ar    1  UNL1       -0.0003
     18 C          65.2316   91.5021   13.0976 C.ar    1  UNL1       -0.0000
     19 C          64.2481   90.4561   13.5319 C.ar    1  UNL1       -0.0003
     20 C          63.1507   90.0270   12.6037 C.ar    1  UNL1       -0.0042
     21 C          66.3290   91.9312   14.0259 C.ar    1  UNL1       -0.0000
     22 C          65.9971   92.4162   15.4060 C.ar    1  UNL1       -0.0000
     23 C          67.0944   92.8454   16.3342 C.ar    1  UNL1        0.0000
     24 C          68.5236   92.7895   15.8825 C.ar    1  UNL1        0.0000
     25 C          68.8555   92.3045   14.5024 C.ar    1  UNL1        0.0000
     26 C          67.7582   91.8754   13.5741 C.ar    1  UNL1       -0.0000
@<TRIPOS>BOND
     1    10    11    1
     2    11     6    1
     3     6     7    1
     4     6     2    1
     5     2     3    2
     6     2     4   am
     7     4     1    1
     8     1    12    1
     9    12    13    3
    10     1    14    1
    11    14    15    1
    12    15    16   ar
    13    16    17   ar
    14    17    18   ar
    15    18    21    1
    16    21    22   ar
    17    22    23   ar
    18    23    24   ar
    19    24    25   ar
    20    25    26   ar
    21    18    19   ar
    22    19    20   ar
    23    20    15   ar
    24    26    21   ar
    25     7     8    1
    26     7     9    1
    27     4     5    1
@<TRIPOS>MOLECULE
*****
 26 27 0 0 0
SMALL
GASTEIGER

@<TRIPOS>ATOM
      1 C          63.6575   90.1184   13.5764 C.3     1  UNL1        0.1684
      2 C          61.7392   89.9818   11.8295 C.2     1  UNL1        0.2372
      3 O          62.7409   90.1056   10.7199 O.2     1  UNL1       -0.2736
      4 N          62.1974   89.9882   13.2578 N.am    1  UNL1       -0.2925
      5 H          61.5400   89.9070   13.9861 H       1  UNL1        0.1504
      6 C          60.2792   89.8516   11.5109 C.3     1  UNL1        0.1283
      7 N          59.3982   91.0656   11.5210 N.3     1  UNL1       -0.3150
      8 H          59.9532   91.8864   11.7629 H       1  UNL1        0.1192
      9 H          58.6563   90.9416   12.2100 H       1  UNL1        0.1192
     10 C          60.5122   87.5094   10.4111 C.3     1  UNL1        0.0019
     11 C          59.7002   88.5075   11.1822 C.3     1  UNL1        0.0248
     12 C          64.4167   91.3333   13.1319 C.1     1  UNL1        0.0927
     13 N          65.1759   92.5483   12.6874 N.1     1  UNL1       -0.1942
     14 C          64.3582   89.0338   14.3396 C.3     1  UNL1        0.0616
     15 C          64.0492   87.5944   14.0518 C.ar    1  UNL1       -0.0194
     16 C          63.4295   87.2078   12.7417 C.ar    1  UNL1       -0.0042
     17 C          63.1205   85.7685   12.4539 C.ar    1  UNL1       -0.0003
     18 C          63.4311   84.7158   13.4762 C.ar    1  UNL1       -0.0000
     19 C          64.0508   85.1024   14.7863 C.ar    1  UNL1       -0.0003
     20 C          64.3598   86.5417   15.0741 C.ar    1  UNL1       -0.0042
     21 C          63.1220   83.2765   13.1884 C.ar    1  UNL1       -0.0000
     22 C          62.6292   82.3811   14.2863 C.ar    1  UNL1       -0.0000
     23 C          62.3202   80.9418   13.9985 C.ar    1  UNL1        0.0000
     24 C          62.5040   80.3978   12.6128 C.ar    1  UNL1        0.0000
     25 C          62.9968   81.2931   11.5149 C.ar    1  UNL1        0.0000
     26 C          63.3058   82.7325   11.8027 C.ar    1  UNL1       -0.0000
@<TRIPOS>BOND
     1    10    11    1
     2    11     6    1
     3     6     7    1
     4     6     2    1
     5     2     3    2
     6     2     4   am
     7     4     1    1
     8     1    12    1
     9    12    13    3
    10     1    14    1
    11    14    15    1
    12    15    16   ar
    13    16    17   ar
    14    17    18   ar
    15    18    21    1
    16    21    22   ar
    17    22    23   ar
    18    23    24   ar
    19    24    25   ar
    20    25    26   ar
    21    18    19   ar
    22    19    20   ar
    23    20    15   ar
    24    26    21   ar
    25     7     8    1
    26     7     9    1
    27     4     5    1
@<TRIPOS>MOLECULE
*****
 26 27 0 0 0
SMALL
GASTEIGER

@<TRIPOS>ATOM
      1 C          64.2381   82.6750   13.0509 C.3     1  UNL1        0.1684
      2 C          63.5683   84.4528   14.8232 C.2     1  UNL1        0.2372
      3 O          62.1854   83.8747   14.8804 O.2     1  UNL1       -0.2736
      4 N          64.5947   83.8530   13.9084 N.am    1  UNL1       -0.2925
      5 H          65.5023   84.2324   13.8709 H       1  UNL1        0.1504
      6 C          63.9249   85.6307   15.6808 C.3     1  UNL1        0.1283
      7 N          63.3239   85.7725   17.0478 N.3     1  UNL1       -0.3150
      8 H          62.7013   84.9850   17.2288 H       1  UNL1        0.1192
      9 H          62.7946   86.6429   17.0979 H       1  UNL1        0.1192
     10 C          64.3612   87.9213   14.5351 C.3     1  UNL1        0.0019
     11 C          64.8823   86.6669   15.1713 C.3     1  UNL1        0.0248
     12 C          63.8479   81.3743   13.6879 C.1     1  UNL1        0.0927
     13 N          63.4577   80.0736   14.3250 N.1     1  UNL1       -0.1942
     14 C          64.2718   82.7978   11.5563 C.3     1  UNL1        0.0616
     15 C          63.4413   83.8419   10.8706 C.ar    1  UNL1       -0.0194
     16 C          62.4122   84.6100   11.6459 C.ar    1  UNL1       -0.0042
     17 C          61.5817   85.6541   10.9602 C.ar    1  UNL1       -0.0003
     18 C          61.7803   85.9301    9.4993 C.ar    1  UNL1       -0.0000
     19 C          62.8094   85.1621    8.7241 C.ar    1  UNL1       -0.0003
     20 C          63.6399   84.1180    9.4097 C.ar    1  UNL1       -0.0042
     21 C          60.9498   86.9742    8.8137 C.ar    1  UNL1       -0.0000
     22 C          61.0297   88.4054    9.2555 C.ar    1  UNL1       -0.0000
     23 C          60.1992   89.4495    8.5699 C.ar    1  UNL1        0.0000
     24 C          59.2888   89.0625    7.4424 C.ar    1  UNL1        0.0000
     25 C          59.2090   87.6313    7.0005 C.ar    1  UNL1        0.0000
     26 C          60.0395   86.5872    7.6862 C.ar    1  UNL1       -0.0000
@<TRIPOS>BOND
     1    10    11    1
     2    11     6    1
     3     6     7    1
     4     6     2    1
     5     2     3    2
     6     2     4   am
     7     4     1    1
     8     1    12    1
     9    12    13    3
    10     1    14    1
    11    14    15    1
    12    15    16   ar
    13    16    17   ar
    14    17    18   ar
    15    18    21    1
    16    21    22   ar
    17    22    23   ar
    18    23    24   ar
    19    24    25   ar
    20    25    26   ar
    21    18    19   ar
    22    19    20   ar
    23    20    15   ar
    24    26    21   ar
    25     7     8    1
    26     7     9    1
    27     4     5    1
@<TRIPOS>MOLECULE
*****
 26 27 0 0 0
SMALL
GASTEIGER

@<TRIPOS>ATOM
      1 C          61.2568   89.1484   10.4204 C.3     1  UNL1        0.1684
      2 C          62.1950   86.7305   10.2670 C.2     1  UNL1        0.2372
      3 O          62.4286   86.7271   11.7487 O.2     1  UNL1       -0.2736
      4 N          61.6091   87.9411    9.6029 N.am    1  UNL1       -0.2925
      5 H          61.4558   87.9433    8.6304 H       1  UNL1        0.1504
      6 C          62.5473   85.5232    9.4495 C.3     1  UNL1        0.1283
      7 N          63.2164   84.3476   10.0978 N.3     1  UNL1       -0.3150
      8 H          63.3549   84.5397   11.0899 H       1  UNL1        0.1192
      9 H          64.1200   84.1832    9.6539 H       1  UNL1        0.1192
     10 C          60.8053   85.5680    7.5226 C.3     1  UNL1        0.0019
     11 C          62.2306   85.4915    7.9837 C.3     1  UNL1        0.0248
     12 C          60.1578   89.0703   11.4383 C.1     1  UNL1        0.0927
     13 N          59.0587   88.9921   12.4561 N.1     1  UNL1       -0.1942
     14 C          62.0035   90.4338   10.2201 C.3     1  UNL1        0.0616
     15 C          63.0992   90.8204   11.1688 C.ar    1  UNL1       -0.0194
     16 C          63.1831   90.1756   12.5205 C.ar    1  UNL1       -0.0042
     17 C          64.2788   90.5621   13.4692 C.ar    1  UNL1       -0.0003
     18 C          65.2906   91.5935   13.0661 C.ar    1  UNL1       -0.0000
     19 C          65.2067   92.2383   11.7144 C.ar    1  UNL1       -0.0003
     20 C          64.1110   91.8517   10.7658 C.ar    1  UNL1       -0.0042
     21 C          66.3863   91.9800   14.0148 C.ar    1  UNL1       -0.0000
     22 C          67.8197   91.8884   13.5825 C.ar    1  UNL1       -0.0000
     23 C          68.9154   92.2750   14.5312 C.ar    1  UNL1        0.0000
     24 C          68.5777   92.7532   15.9122 C.ar    1  UNL1        0.0000
     25 C          67.1444   92.8448   16.3445 C.ar    1  UNL1        0.0000
     26 C          66.0487   92.4582   15.3958 C.ar    1  UNL1       -0.0000
@<TRIPOS>BOND
     1    10    11    1
     2    11     6    1
     3     6     7    1
     4     6     2    1
     5     2     3    2
     6     2     4   am
     7     4     1    1
     8     1    12    1
     9    12    13    3
    10     1    14    1
    11    14    15    1
    12    15    16   ar
    13    16    17   ar
    14    17    18   ar
    15    18    21    1
    16    21    22   ar
    17    22    23   ar
    18    23    24   ar
    19    24    25   ar
    20    25    26   ar
    21    18    19   ar
    22    19    20   ar
    23    20    15   ar
    24    26    21   ar
    25     7     8    1
    26     7     9    1
    27     4     5    1
@<TRIPOS>MOLECULE
*****
 26 27 0 0 0
SMALL
GASTEIGER

@<TRIPOS>ATOM
      1 C          65.3398   91.5597   13.4569 C.3     1  UNL1        0.1684
      2 C          66.0873   93.5486   11.9618 C.2     1  UNL1        0.2372
      3 O          66.6763   94.2293   13.1617 O.2     1  UNL1       -0.2736
      4 N          65.4191   92.2138   12.1094 N.am    1  UNL1       -0.2925
      5 H          65.0326   91.7671   11.3218 H       1  UNL1        0.1504
      6 C          66.1667   94.2028   10.6142 C.3     1  UNL1        0.1283
      7 N          65.1451   95.2265   10.2162 N.3     1  UNL1       -0.3150
      8 H          64.4768   95.3532   10.9762 H       1  UNL1        0.1192
      9 H          64.6536   94.9094    9.3806 H       1  UNL1        0.1192
     10 C          67.9429   92.4990    9.7823 C.3     1  UNL1        0.0019
     11 C          67.2675   93.8332    9.6647 C.3     1  UNL1        0.0248
     12 C          66.5265   91.5854   14.3741 C.1     1  UNL1        0.0927
     13 N          67.7132   91.6110   15.2912 N.1     1  UNL1       -0.1942
     14 C          64.0739   90.8799   13.8873 C.3     1  UNL1        0.0616
     15 C          63.9192   89.3989   13.7070 C.ar    1  UNL1       -0.0194
     16 C          64.4208   88.4584   14.7624 C.ar    1  UNL1       -0.0042
     17 C          64.2661   86.9773   14.5821 C.ar    1  UNL1       -0.0003
     18 C          63.6099   86.4367   13.3464 C.ar    1  UNL1       -0.0000
     19 C          63.1083   87.3772   12.2910 C.ar    1  UNL1       -0.0003
     20 C          63.2630   88.8582   12.4713 C.ar    1  UNL1       -0.0042
     21 C          63.4552   84.9556   13.1662 C.ar    1  UNL1       -0.0000
     22 C          62.8936   84.4105   11.8866 C.ar    1  UNL1       -0.0000
     23 C          62.7390   82.9294   11.7063 C.ar    1  UNL1        0.0000
     24 C          63.1459   81.9935   12.8056 C.ar    1  UNL1        0.0000
     25 C          63.7074   82.5387   14.0852 C.ar    1  UNL1        0.0000
     26 C          63.8621   84.0198   14.2655 C.ar    1  UNL1       -0.0000
@<TRIPOS>BOND
     1    10    11    1
     2    11     6    1
     3     6     7    1
     4     6     2    1
     5     2     3    2
     6     2     4   am
     7     4     1    1
     8     1    12    1
     9    12    13    3
    10     1    14    1
    11    14    15    1
    12    15    16   ar
    13    16    17   ar
    14    17    18   ar
    15    18    21    1
    16    21    22   ar
    17    22    23   ar
    18    23    24   ar
    19    24    25   ar
    20    25    26   ar
    21    18    19   ar
    22    19    20   ar
    23    20    15   ar
    24    26    21   ar
    25     7     8    1
    26     7     9    1
    27     4     5    1
