@<TRIPOS>MOLECULE
*****
 58 64 0 0 0
SMALL
GASTEIGER

@<TRIPOS>ATOM
      1 N          64.0405   86.2726   15.8309 N.3     1  UNL1       -0.1862
      2 C          64.1914   84.8103   16.1293 C.3     1  UNL1        0.1775
      3 C          63.9841   83.7978   15.0422 C.2     1  UNL1        0.2452
      4 O          64.1349   82.3355   15.3407 O.2     1  UNL1       -0.2732
      5 N          63.6259   84.2474   13.6568 N.am    1  UNL1       -0.2541
      6 C          63.4186   83.2348   12.5697 C.3     1  UNL1        0.1577
      7 C          63.0604   83.6844   11.1843 C.2     1  UNL1        0.2445
      8 O          62.8531   82.6718   10.0972 O.2     1  UNL1       -0.2731
      9 N          62.9095   85.1467   10.8858 N.am    1  UNL1       -0.2705
     10 C          63.1168   86.1593   11.9729 C.3     1  UNL1        0.1359
     11 C          63.4750   85.7096   13.3584 C.3     1  UNL1        0.1908
     12 N          63.6823   86.7222   14.4454 N.am    1  UNL1       -0.1863
     13 C          63.5315   88.1845   14.1470 C.2     1  UNL1        0.3191
     14 O          63.1733   88.6341   12.7615 O.2     1  UNL1       -0.2512
     15 N          63.7388   89.1971   15.2340 N.am    1  UNL1       -0.2836
     16 H          63.9739   88.9020   16.1434 H       1  UNL1        0.1513
     17 C          64.2478   87.2852   16.9179 C.3     1  UNL1        0.1188
     18 C          62.5119   86.6814   18.7542 C.2     1  UNL1       -0.0034
     19 C          63.1033   87.6797   17.8036 C.2     1  UNL1       -0.0071
     20 C          63.5694   81.7726   12.8681 C.3     1  UNL1        0.0556
     21 C          62.3772   80.9665   13.2910 C.ar    1  UNL1       -0.0198
     22 C          61.1466   81.6575   13.7989 C.ar    1  UNL1       -0.0011
     23 C          59.9543   80.8514   14.2218 C.ar    1  UNL1        0.0363
     24 C          59.9928   79.3543   14.1368 C.ar    1  UNL1        0.1337
     25 O          58.8005   78.5482   14.5597 O.3     1  UNL1       -0.5055
     26 C          61.2235   78.6632   13.6289 C.ar    1  UNL1        0.0363
     27 C          62.4157   79.4693   13.2060 C.ar    1  UNL1       -0.0011
     28 H          58.0318   78.9799   14.8769 H       1  UNL1        0.2922
     29 C          62.5514   85.5963    9.5004 C.3     1  UNL1        0.1217
     30 C          62.0127   86.9782    9.2761 C.ar    1  UNL1        0.0135
     31 C          62.4915   88.1171   10.1268 C.ar    1  UNL1       -0.0012
     32 C          61.9529   89.4989    9.9026 C.ar    1  UNL1       -0.0002
     33 C          60.9354   89.7419    8.8276 C.ar    1  UNL1        0.0016
     34 C          60.4565   88.6031    7.9769 C.ar    1  UNL1        0.0214
     35 C          59.4683   88.5382    6.8503 C.ar    1  UNL1        0.0719
     36 C          59.3963   87.1162    6.3782 C.ar    1  UNL1        0.0805
     37 N          60.3399   86.3024    7.2131 N.ar    1  UNL1       -0.3241
     38 C          60.5852   84.8283    7.0828 C.3     1  UNL1        0.1305
     39 C          60.9951   87.2212    8.2012 C.ar    1  UNL1        0.0577
     40 C          58.6890   89.6927    6.2934 C.2     1  UNL1        0.2474
     41 O          57.2073   89.7728    6.5128 O.2     1  UNL1       -0.2701
     42 N          59.3914   90.7669    5.5172 N.am    1  UNL1       -0.2994
     43 H          60.3639   90.7143    5.3732 H       1  UNL1        0.1498
     44 C          58.6122   91.9214    4.9604 C.3     1  UNL1        0.1070
     45 C          59.3292   93.0605    4.2983 C.3     1  UNL1        0.0937
     46 N          60.1195   92.8227    3.0458 N.3     1  UNL1       -0.2670
     47 C          59.4686   92.9914    1.7049 C.3     1  UNL1        0.1047
     48 C          60.2589   92.7536    0.4524 C.3     1  UNL1        0.1595
     49 O          61.7001   92.3472    0.5407 O.3     1  UNL1       -0.3508
     50 C          62.3510   92.1785    1.8816 C.3     1  UNL1        0.1595
     51 C          61.5606   92.4163    3.1341 C.3     1  UNL1        0.1047
     52 C          63.5879   90.6593   14.9356 C.3     1  UNL1        0.1177
     53 C          64.6181   91.3655   14.1049 C.ar    1  UNL1       -0.0025
     54 C          65.9491   91.7174   14.7004 C.ar    1  UNL1       -0.0026
     55 C          66.9793   92.4235   13.8697 C.ar    1  UNL1       -0.0003
     56 C          66.6785   92.7777   12.4435 C.ar    1  UNL1       -0.0000
     57 C          65.3474   92.4258   11.8480 C.ar    1  UNL1       -0.0003
     58 C          64.3172   91.7197   12.6787 C.ar    1  UNL1       -0.0026
@<TRIPOS>BOND
     1    18    19    2
     2    19    17    1
     3    17     1    1
     4     1     2    1
     5     2     3    1
     6     3     4    2
     7     3     5   am
     8     5     6    1
     9     6    20    1
    10    20    21    1
    11    21    22   ar
    12    22    23   ar
    13    23    24   ar
    14    24    25    1
    15    24    26   ar
    16    26    27   ar
    17     6     7    1
    18     7     8    2
    19     7     9   am
    20     9    29    1
    21    29    30    1
    22    30    31   ar
    23    31    32   ar
    24    32    33   ar
    25    33    34   ar
    26    34    35   ar
    27    35    40    1
    28    40    41    2
    29    40    42   am
    30    42    44    1
    31    44    45    1
    32    45    46    1
    33    46    47    1
    34    47    48    1
    35    48    49    1
    36    49    50    1
    37    50    51    1
    38    35    36   ar
    39    36    37   ar
    40    37    38    1
    41    37    39   ar
    42     9    10    1
    43    11    10    1
    44    11    12    1
    45    12    13   am
    46    13    14    2
    47    13    15   am
    48    15    52    1
    49    52    53    1
    50    53    54   ar
    51    54    55   ar
    52    55    56   ar
    53    56    57   ar
    54    57    58   ar
    55    12     1    1
    56    58    53   ar
    57    11     5    1
    58    27    21   ar
    59    39    30   ar
    60    39    34   ar
    61    51    46    1
    62    25    28    1
    63    42    43    1
    64    15    16    1
@<TRIPOS>MOLECULE
*****
 58 64 0 0 0
SMALL
GASTEIGER

@<TRIPOS>ATOM
      1 N          62.2316   95.0951   -3.4743 N.3     1  UNL1       -0.1862
      2 C          61.1999   94.6694   -4.4764 C.3     1  UNL1        0.1775
      3 C          59.9010   94.0804   -4.0116 C.2     1  UNL1        0.2452
      4 O          58.8692   93.6547   -5.0138 O.2     1  UNL1       -0.2732
      5 N          59.6338   93.9173   -2.5446 N.am    1  UNL1       -0.2541
      6 C          58.3349   93.3283   -2.0798 C.3     1  UNL1        0.1577
      7 C          58.0678   93.1651   -0.6129 C.2     1  UNL1        0.2445
      8 O          56.7689   92.5762   -0.1480 O.2     1  UNL1       -0.2731
      9 N          59.0995   93.5909    0.3893 N.am    1  UNL1       -0.2705
     10 C          60.3984   94.1799   -0.0755 C.3     1  UNL1        0.1359
     11 C          60.6655   94.3430   -1.5425 C.3     1  UNL1        0.1908
     12 N          61.9644   94.9320   -2.0074 N.am    1  UNL1       -0.1863
     13 C          62.9961   95.3577   -1.0052 C.2     1  UNL1        0.3191
     14 O          62.7290   95.1946    0.4618 O.2     1  UNL1       -0.2512
     15 N          64.2950   95.9467   -1.4700 N.am    1  UNL1       -0.2836
     16 H          64.4703   96.0538   -2.4328 H       1  UNL1        0.1513
     17 C          63.5304   95.6841   -3.9391 C.3     1  UNL1        0.1188
     18 C          64.0597   94.4336   -6.1541 C.2     1  UNL1       -0.0034
     19 C          64.4677   94.8659   -4.7769 C.2     1  UNL1       -0.0071
     20 C          57.3032   92.9025   -3.0819 C.3     1  UNL1        0.0556
     21 C          56.2021   93.8440   -3.4709 C.ar    1  UNL1       -0.0198
     22 C          55.9169   94.1066   -4.9198 C.ar    1  UNL1       -0.0011
     23 C          54.8157   95.0480   -5.3088 C.ar    1  UNL1        0.0363
     24 C          53.9999   95.7268   -4.2488 C.ar    1  UNL1        0.1337
     25 O          52.8988   96.6682   -4.6378 O.3     1  UNL1       -0.5055
     26 C          54.2851   95.4641   -2.7997 C.ar    1  UNL1        0.0363
     27 C          55.3862   94.5227   -2.4108 C.ar    1  UNL1       -0.0011
     28 H          52.7206   96.8323   -5.5429 H       1  UNL1        0.2922
     29 C          58.8323   93.4277    1.8563 C.3     1  UNL1        0.1217
     30 C          59.7666   92.6151    2.7030 C.ar    1  UNL1        0.0135
     31 C          61.2288   92.5665    2.3717 C.ar    1  UNL1       -0.0012
     32 C          62.1630   91.7539    3.2183 C.ar    1  UNL1       -0.0002
     33 C          61.6351   90.9899    4.3962 C.ar    1  UNL1        0.0016
     34 C          60.1730   91.0384    4.7275 C.ar    1  UNL1        0.0214
     35 C          59.3690   90.3944    5.8178 C.ar    1  UNL1        0.0719
     36 C          57.9378   90.8090    5.6450 C.ar    1  UNL1        0.0805
     37 N          57.8573   91.7092    4.4480 N.ar    1  UNL1       -0.3241
     38 C          56.6138   92.3544    3.9120 C.3     1  UNL1        0.1305
     39 C          59.2387   91.8510    3.8809 C.ar    1  UNL1        0.0577
     40 C          59.9025   89.4939    6.8923 C.2     1  UNL1        0.2474
     41 O          59.6959   88.0111    6.7992 O.2     1  UNL1       -0.2701
     42 N          60.6425   90.0762    8.0599 N.am    1  UNL1       -0.2994
     43 H          60.7781   91.0494    8.1210 H       1  UNL1        0.1498
     44 C          61.1761   89.1757    9.1344 C.3     1  UNL1        0.1070
     45 C          61.0854   89.5896   10.5733 C.3     1  UNL1        0.0937
     46 N          62.2636   90.2303   11.2450 N.3     1  UNL1       -0.2670
     47 C          62.5446   89.9524   12.6920 C.3     1  UNL1        0.1047
     48 C          63.7228   90.5931   13.3637 C.3     1  UNL1        0.1595
     49 O          64.6201   91.5118   12.5884 O.3     1  UNL1       -0.3508
     50 C          64.3391   91.7897   11.1414 C.3     1  UNL1        0.1595
     51 C          63.1609   91.1489   10.4697 C.3     1  UNL1        0.1047
     52 C          65.3267   96.3725   -0.4679 C.3     1  UNL1        0.1177
     53 C          65.2594   95.8619    0.9409 C.ar    1  UNL1       -0.0025
     54 C          65.1843   94.3866    1.2013 C.ar    1  UNL1       -0.0026
     55 C          65.1170   93.8761    2.6101 C.ar    1  UNL1       -0.0003
     56 C          65.1248   94.8409    3.7586 C.ar    1  UNL1       -0.0000
     57 C          65.1999   96.3162    3.4983 C.ar    1  UNL1       -0.0003
     58 C          65.2672   96.8268    2.0895 C.ar    1  UNL1       -0.0026
@<TRIPOS>BOND
     1    18    19    2
     2    19    17    1
     3    17     1    1
     4     1     2    1
     5     2     3    1
     6     3     4    2
     7     3     5   am
     8     5     6    1
     9     6    20    1
    10    20    21    1
    11    21    22   ar
    12    22    23   ar
    13    23    24   ar
    14    24    25    1
    15    24    26   ar
    16    26    27   ar
    17     6     7    1
    18     7     8    2
    19     7     9   am
    20     9    29    1
    21    29    30    1
    22    30    31   ar
    23    31    32   ar
    24    32    33   ar
    25    33    34   ar
    26    34    35   ar
    27    35    40    1
    28    40    41    2
    29    40    42   am
    30    42    44    1
    31    44    45    1
    32    45    46    1
    33    46    47    1
    34    47    48    1
    35    48    49    1
    36    49    50    1
    37    50    51    1
    38    35    36   ar
    39    36    37   ar
    40    37    38    1
    41    37    39   ar
    42     9    10    1
    43    11    10    1
    44    11    12    1
    45    12    13   am
    46    13    14    2
    47    13    15   am
    48    15    52    1
    49    52    53    1
    50    53    54   ar
    51    54    55   ar
    52    55    56   ar
    53    56    57   ar
    54    57    58   ar
    55    12     1    1
    56    58    53   ar
    57    11     5    1
    58    27    21   ar
    59    39    30   ar
    60    39    34   ar
    61    51    46    1
    62    25    28    1
    63    42    43    1
    64    15    16    1
@<TRIPOS>MOLECULE
*****
 58 64 0 0 0
SMALL
GASTEIGER

@<TRIPOS>ATOM
      1 N          62.5358   84.1870    9.2702 N.3     1  UNL1       -0.1862
      2 C          61.7735   84.3046    7.9838 C.3     1  UNL1        0.1775
      3 C          60.9693   85.5383    7.6986 C.2     1  UNL1        0.2452
      4 O          60.2069   85.6558    6.4121 O.2     1  UNL1       -0.2732
      5 N          60.9275   86.6544    8.6998 N.am    1  UNL1       -0.2541
      6 C          60.1234   87.8881    8.4147 C.3     1  UNL1        0.1577
      7 C          60.0816   89.0042    9.4159 C.2     1  UNL1        0.2445
      8 O          59.2774   90.2379    9.1307 O.2     1  UNL1       -0.2731
      9 N          60.8440   88.8866   10.7024 N.am    1  UNL1       -0.2705
     10 C          61.6481   87.6529   10.9876 C.3     1  UNL1        0.1359
     11 C          61.6899   86.5368    9.9863 C.3     1  UNL1        0.1908
     12 N          62.4941   85.3031   10.2714 N.am    1  UNL1       -0.1863
     13 C          63.2565   85.1856   11.5579 C.2     1  UNL1        0.3191
     14 O          63.2147   86.3017   12.5592 O.2     1  UNL1       -0.2512
     15 N          64.0606   83.9519   11.8431 N.am    1  UNL1       -0.2836
     16 H          64.0880   83.2193   11.1860 H       1  UNL1        0.1513
     17 C          63.3400   82.9533    9.5554 C.3     1  UNL1        0.1188
     18 C          63.1750   80.4568   10.2555 C.2     1  UNL1       -0.0034
     19 C          62.7893   81.8917   10.4608 C.2     1  UNL1       -0.0071
     20 C          59.3610   88.0057    7.1282 C.3     1  UNL1        0.0556
     21 C          59.3717   89.2972    6.3655 C.ar    1  UNL1       -0.0198
     22 C          60.6710   89.8773    5.8910 C.ar    1  UNL1       -0.0011
     23 C          60.6817   91.1688    5.1282 C.ar    1  UNL1        0.0363
     24 C          59.3931   91.8802    4.8399 C.ar    1  UNL1        0.1337
     25 O          59.4037   93.1718    4.0771 O.3     1  UNL1       -0.5055
     26 C          58.0936   91.3001    5.3143 C.ar    1  UNL1        0.0363
     27 C          58.0829   90.0086    6.0771 C.ar    1  UNL1       -0.0011
     28 H          60.2154   93.5341    3.7807 H       1  UNL1        0.2922
     29 C          60.8022   90.0027   11.7036 C.3     1  UNL1        0.1217
     30 C          62.0288   90.3458   12.4960 C.ar    1  UNL1        0.0135
     31 C          62.0862   90.0336   13.9621 C.ar    1  UNL1       -0.0012
     32 C          63.3127   90.3766   14.7545 C.ar    1  UNL1       -0.0002
     33 C          64.4818   91.0318   14.0809 C.ar    1  UNL1        0.0016
     34 C          64.4244   91.3441   12.6149 C.ar    1  UNL1        0.0214
     35 C          65.4139   91.9813   11.6849 C.ar    1  UNL1        0.0719
     36 C          64.7988   92.0322   10.3177 C.ar    1  UNL1        0.0805
     37 N          63.4294   91.4263   10.4027 N.ar    1  UNL1       -0.3241
     38 C          62.4612   91.2727    9.2674 C.3     1  UNL1        0.1305
     39 C          63.1979   91.0011   11.8224 C.ar    1  UNL1        0.0577
     40 C          66.7788   92.4802   12.0568 C.2     1  UNL1        0.2474
     41 O          66.9416   93.8493   12.6477 O.2     1  UNL1       -0.2701
     42 N          67.9808   91.6100   11.8378 N.am    1  UNL1       -0.2994
     43 H          67.8739   90.7115   11.4499 H       1  UNL1        0.1498
     44 C          69.3456   92.1088   12.2097 C.3     1  UNL1        0.1070
     45 C          69.8402   91.9611   13.6181 C.3     1  UNL1        0.0937
     46 N          69.0541   92.5456   14.7541 N.3     1  UNL1       -0.2670
     47 C          67.8041   91.8660   15.2291 C.3     1  UNL1        0.1047
     48 C          67.0182   92.4505   16.3651 C.3     1  UNL1        0.1595
     49 O          67.4822   93.7145   17.0261 O.3     1  UNL1       -0.3508
     50 C          68.7322   94.3941   16.5512 C.3     1  UNL1        0.1595
     51 C          69.5182   93.8096   15.4151 C.3     1  UNL1        0.1047
     52 C          64.8230   83.8343   13.1295 C.3     1  UNL1        0.1177
     53 C          64.2913   84.4743   14.3776 C.ar    1  UNL1       -0.0025
     54 C          64.9248   85.7268   14.9066 C.ar    1  UNL1       -0.0026
     55 C          64.3931   86.3668   16.1547 C.ar    1  UNL1       -0.0003
     56 C          63.2280   85.7542   16.8738 C.ar    1  UNL1       -0.0000
     57 C          62.5945   84.5016   16.3449 C.ar    1  UNL1       -0.0003
     58 C          63.1261   83.8617   15.0968 C.ar    1  UNL1       -0.0026
@<TRIPOS>BOND
     1    18    19    2
     2    19    17    1
     3    17     1    1
     4     1     2    1
     5     2     3    1
     6     3     4    2
     7     3     5   am
     8     5     6    1
     9     6    20    1
    10    20    21    1
    11    21    22   ar
    12    22    23   ar
    13    23    24   ar
    14    24    25    1
    15    24    26   ar
    16    26    27   ar
    17     6     7    1
    18     7     8    2
    19     7     9   am
    20     9    29    1
    21    29    30    1
    22    30    31   ar
    23    31    32   ar
    24    32    33   ar
    25    33    34   ar
    26    34    35   ar
    27    35    40    1
    28    40    41    2
    29    40    42   am
    30    42    44    1
    31    44    45    1
    32    45    46    1
    33    46    47    1
    34    47    48    1
    35    48    49    1
    36    49    50    1
    37    50    51    1
    38    35    36   ar
    39    36    37   ar
    40    37    38    1
    41    37    39   ar
    42     9    10    1
    43    11    10    1
    44    11    12    1
    45    12    13   am
    46    13    14    2
    47    13    15   am
    48    15    52    1
    49    52    53    1
    50    53    54   ar
    51    54    55   ar
    52    55    56   ar
    53    56    57   ar
    54    57    58   ar
    55    12     1    1
    56    58    53   ar
    57    11     5    1
    58    27    21   ar
    59    39    30   ar
    60    39    34   ar
    61    51    46    1
    62    25    28    1
    63    42    43    1
    64    15    16    1
@<TRIPOS>MOLECULE
*****
 58 64 0 0 0
SMALL
GASTEIGER

@<TRIPOS>ATOM
      1 N          63.1276   83.6850    9.5853 N.3     1  UNL1       -0.1862
      2 C          62.5043   83.7700    8.2237 C.3     1  UNL1        0.1775
      3 C          61.6499   84.9487    7.8622 C.2     1  UNL1        0.2452
      4 O          61.0265   85.0337    6.5004 O.2     1  UNL1       -0.2732
      5 N          61.4190   86.0425    8.8623 N.am    1  UNL1       -0.2541
      6 C          60.5646   87.2212    8.5008 C.3     1  UNL1        0.1577
      7 C          60.3337   88.3149    9.5010 C.2     1  UNL1        0.2445
      8 O          59.4793   89.4937    9.1395 O.2     1  UNL1       -0.2731
      9 N          60.9571   88.2300   10.8627 N.am    1  UNL1       -0.2705
     10 C          61.8114   87.0512   11.2242 C.3     1  UNL1        0.1359
     11 C          62.0423   85.9574   10.2240 C.3     1  UNL1        0.1908
     12 N          62.8967   84.7787   10.5855 N.am    1  UNL1       -0.1863
     13 C          63.5201   84.6938   11.9472 C.2     1  UNL1        0.3191
     14 O          63.2891   85.7875   12.9473 O.2     1  UNL1       -0.2512
     15 N          64.3744   83.5150   12.3087 N.am    1  UNL1       -0.2836
     16 H          64.5260   82.7972   11.6522 H       1  UNL1        0.1513
     17 C          63.9820   82.5062    9.9468 C.3     1  UNL1        0.1188
     18 C          62.6300   81.0924   11.6565 C.2     1  UNL1       -0.0034
     19 C          63.3415   81.2085   10.3410 C.2     1  UNL1       -0.0071
     20 C          59.9412   87.3062    7.1392 C.3     1  UNL1        0.0556
     21 C          59.5690   88.6418    6.5668 C.ar    1  UNL1       -0.0198
     22 C          58.1348   89.0812    6.5593 C.ar    1  UNL1       -0.0011
     23 C          57.7626   90.4168    5.9869 C.ar    1  UNL1        0.0363
     24 C          58.8245   91.3129    5.4220 C.ar    1  UNL1        0.1337
     25 O          58.4523   92.6485    4.8495 O.3     1  UNL1       -0.5055
     26 C          60.2588   90.8735    5.4294 C.ar    1  UNL1        0.0363
     27 C          60.6310   89.5380    6.0018 C.ar    1  UNL1       -0.0011
     28 H          57.5564   92.9230    4.8449 H       1  UNL1        0.2922
     29 C          60.7261   89.3237   11.8629 C.3     1  UNL1        0.1217
     30 C          61.8936   90.0458   12.4676 C.ar    1  UNL1        0.0135
     31 C          62.2022   89.8830   13.9265 C.ar    1  UNL1       -0.0012
     32 C          63.3696   90.6051   14.5312 C.ar    1  UNL1       -0.0002
     33 C          64.2283   91.4900   13.6771 C.ar    1  UNL1        0.0016
     34 C          63.9197   91.6528   12.2183 C.ar    1  UNL1        0.0214
     35 C          64.5825   92.4512   11.1351 C.ar    1  UNL1        0.0719
     36 C          63.8247   92.2226    9.8610 C.ar    1  UNL1        0.0805
     37 N          62.6936   91.2829   10.1567 N.ar    1  UNL1       -0.3241
     38 C          61.6815   90.7831    9.1689 C.3     1  UNL1        0.1305
     39 C          62.7523   90.9307   11.6135 C.ar    1  UNL1        0.0577
     40 C          65.7910   93.3249   11.2977 C.2     1  UNL1        0.2474
     41 O          67.1246   92.8624   10.7903 O.2     1  UNL1       -0.2701
     42 N          65.6657   94.6612   11.9676 N.am    1  UNL1       -0.2994
     43 H          64.7904   94.9647   12.3006 H       1  UNL1        0.1498
     44 C          66.8741   95.5349   12.1301 C.3     1  UNL1        0.1070
     45 C          67.1536   96.6212   11.1343 C.3     1  UNL1        0.0937
     46 N          66.3612   96.6952    9.8629 N.3     1  UNL1       -0.2670
     47 C          64.8646   96.7808    9.9158 C.3     1  UNL1        0.1047
     48 C          64.0722   96.8548    8.6444 C.3     1  UNL1        0.1595
     49 O          64.7764   96.8431    7.3200 O.3     1  UNL1       -0.3508
     50 C          66.2730   96.7575    7.2670 C.3     1  UNL1        0.1595
     51 C          67.0653   96.6835    8.5385 C.3     1  UNL1        0.1047
     52 C          64.9978   83.4300   13.6703 C.3     1  UNL1        0.1177
     53 C          64.4175   84.2123   14.8110 C.ar    1  UNL1       -0.0025
     54 C          63.2799   83.6453   15.6074 C.ar    1  UNL1       -0.0026
     55 C          62.6995   84.4275   16.7481 C.ar    1  UNL1       -0.0003
     56 C          63.2569   85.7769   17.0925 C.ar    1  UNL1       -0.0000
     57 C          64.3946   86.3440   16.2962 C.ar    1  UNL1       -0.0003
     58 C          64.9749   85.5617   15.1554 C.ar    1  UNL1       -0.0026
@<TRIPOS>BOND
     1    18    19    2
     2    19    17    1
     3    17     1    1
     4     1     2    1
     5     2     3    1
     6     3     4    2
     7     3     5   am
     8     5     6    1
     9     6    20    1
    10    20    21    1
    11    21    22   ar
    12    22    23   ar
    13    23    24   ar
    14    24    25    1
    15    24    26   ar
    16    26    27   ar
    17     6     7    1
    18     7     8    2
    19     7     9   am
    20     9    29    1
    21    29    30    1
    22    30    31   ar
    23    31    32   ar
    24    32    33   ar
    25    33    34   ar
    26    34    35   ar
    27    35    40    1
    28    40    41    2
    29    40    42   am
    30    42    44    1
    31    44    45    1
    32    45    46    1
    33    46    47    1
    34    47    48    1
    35    48    49    1
    36    49    50    1
    37    50    51    1
    38    35    36   ar
    39    36    37   ar
    40    37    38    1
    41    37    39   ar
    42     9    10    1
    43    11    10    1
    44    11    12    1
    45    12    13   am
    46    13    14    2
    47    13    15   am
    48    15    52    1
    49    52    53    1
    50    53    54   ar
    51    54    55   ar
    52    55    56   ar
    53    56    57   ar
    54    57    58   ar
    55    12     1    1
    56    58    53   ar
    57    11     5    1
    58    27    21   ar
    59    39    30   ar
    60    39    34   ar
    61    51    46    1
    62    25    28    1
    63    42    43    1
    64    15    16    1
@<TRIPOS>MOLECULE
*****
 58 64 0 0 0
SMALL
GASTEIGER

@<TRIPOS>ATOM
      1 N          62.1153   94.8738   -3.7077 N.3     1  UNL1       -0.1862
      2 C          60.9742   94.7687   -4.6756 C.3     1  UNL1        0.1775
      3 C          59.5987   94.4340   -4.1798 C.2     1  UNL1        0.2452
      4 O          58.4575   94.3289   -5.1478 O.2     1  UNL1       -0.2732
      5 N          59.3642   94.2045   -2.7162 N.am    1  UNL1       -0.2541
      6 C          57.9886   93.8698   -2.2204 C.3     1  UNL1        0.1577
      7 C          57.7541   93.6402   -0.7568 C.2     1  UNL1        0.2445
      8 O          56.3785   93.3056   -0.2610 O.2     1  UNL1       -0.2731
      9 N          58.8952   93.7454    0.2112 N.am    1  UNL1       -0.2705
     10 C          60.2708   94.0800   -0.2846 C.3     1  UNL1        0.1359
     11 C          60.5053   94.3096   -1.7483 C.3     1  UNL1        0.1908
     12 N          61.8808   94.6443   -2.2441 N.am    1  UNL1       -0.1863
     13 C          63.0220   94.7494   -1.2761 C.2     1  UNL1        0.3191
     14 O          62.7875   94.5198    0.1875 O.2     1  UNL1       -0.2512
     15 N          64.3975   95.0840   -1.7719 N.am    1  UNL1       -0.2836
     16 H          64.5514   95.2347   -2.7325 H       1  UNL1        0.1513
     17 C          63.4909   95.2085   -4.2035 C.3     1  UNL1        0.1188
     18 C          64.3013   92.7726   -4.6028 C.2     1  UNL1       -0.0034
     19 C          64.2559   94.2118   -5.0228 C.2     1  UNL1       -0.0071
     20 C          56.8475   93.7647   -3.1883 C.3     1  UNL1        0.0556
     21 C          56.2441   92.4258   -3.4938 C.ar    1  UNL1       -0.0198
     22 C          55.8468   92.0854   -4.8996 C.ar    1  UNL1       -0.0011
     23 C          55.2434   90.7465   -5.2051 C.ar    1  UNL1        0.0363
     24 C          55.0373   89.7481   -4.1049 C.ar    1  UNL1        0.1337
     25 O          54.4339   88.4092   -4.4105 O.3     1  UNL1       -0.5055
     26 C          55.4346   90.0885   -2.6990 C.ar    1  UNL1        0.0363
     27 C          56.0380   91.4273   -2.3935 C.ar    1  UNL1       -0.0011
     28 H          54.1858   88.1966   -5.2886 H       1  UNL1        0.2922
     29 C          58.6608   93.5158    1.6748 C.3     1  UNL1        0.1217
     30 C          59.6523   92.7280    2.4788 C.ar    1  UNL1        0.0135
     31 C          61.0966   92.7054    2.0746 C.ar    1  UNL1       -0.0012
     32 C          62.0882   91.9176    2.8785 C.ar    1  UNL1       -0.0002
     33 C          61.6353   91.1524    4.0865 C.ar    1  UNL1        0.0016
     34 C          60.1910   91.1750    4.4906 C.ar    1  UNL1        0.0214
     35 C          59.4556   90.5237    5.6243 C.ar    1  UNL1        0.0719
     36 C          58.0097   90.9091    5.5210 C.ar    1  UNL1        0.0805
     37 N          57.8513   91.7984    4.3236 N.ar    1  UNL1       -0.3241
     38 C          56.5699   92.4151    3.8467 C.3     1  UNL1        0.1305
     39 C          59.1994   91.9627    3.6868 C.ar    1  UNL1        0.0577
     40 C          60.0602   89.6419    6.6765 C.2     1  UNL1        0.2474
     41 O          61.2333   90.1252    7.4767 O.2     1  UNL1       -0.2701
     42 N          59.4916   88.2770    6.9285 N.am    1  UNL1       -0.2994
     43 H          58.7217   87.9598    6.4033 H       1  UNL1        0.1498
     44 C          60.0961   87.3952    7.9806 C.3     1  UNL1        0.1070
     45 C          59.6234   87.4901    9.4011 C.3     1  UNL1        0.0937
     46 N          60.5326   88.0423   10.4587 N.3     1  UNL1       -0.2670
     47 C          61.8016   87.3225   10.8073 C.3     1  UNL1        0.1047
     48 C          62.7107   87.8748   11.8649 C.3     1  UNL1        0.1595
     49 O          62.3508   89.1467   12.5739 O.3     1  UNL1       -0.3508
     50 C          61.0818   89.8664   12.2252 C.3     1  UNL1        0.1595
     51 C          60.1727   89.3142   11.1676 C.3     1  UNL1        0.1047
     52 C          65.5386   95.1892   -0.8040 C.3     1  UNL1        0.1177
     53 C          65.2661   95.3385    0.6634 C.ar    1  UNL1       -0.0025
     54 C          65.1689   94.1222    1.5358 C.ar    1  UNL1       -0.0026
     55 C          64.8964   94.2715    3.0033 C.ar    1  UNL1       -0.0003
     56 C          64.7210   95.6372    3.5983 C.ar    1  UNL1       -0.0000
     57 C          64.8181   96.8536    2.7260 C.ar    1  UNL1       -0.0003
     58 C          65.0907   96.7043    1.2585 C.ar    1  UNL1       -0.0026
@<TRIPOS>BOND
     1    18    19    2
     2    19    17    1
     3    17     1    1
     4     1     2    1
     5     2     3    1
     6     3     4    2
     7     3     5   am
     8     5     6    1
     9     6    20    1
    10    20    21    1
    11    21    22   ar
    12    22    23   ar
    13    23    24   ar
    14    24    25    1
    15    24    26   ar
    16    26    27   ar
    17     6     7    1
    18     7     8    2
    19     7     9   am
    20     9    29    1
    21    29    30    1
    22    30    31   ar
    23    31    32   ar
    24    32    33   ar
    25    33    34   ar
    26    34    35   ar
    27    35    40    1
    28    40    41    2
    29    40    42   am
    30    42    44    1
    31    44    45    1
    32    45    46    1
    33    46    47    1
    34    47    48    1
    35    48    49    1
    36    49    50    1
    37    50    51    1
    38    35    36   ar
    39    36    37   ar
    40    37    38    1
    41    37    39   ar
    42     9    10    1
    43    11    10    1
    44    11    12    1
    45    12    13   am
    46    13    14    2
    47    13    15   am
    48    15    52    1
    49    52    53    1
    50    53    54   ar
    51    54    55   ar
    52    55    56   ar
    53    56    57   ar
    54    57    58   ar
    55    12     1    1
    56    58    53   ar
    57    11     5    1
    58    27    21   ar
    59    39    30   ar
    60    39    34   ar
    61    51    46    1
    62    25    28    1
    63    42    43    1
    64    15    16    1
