@<TRIPOS>MOLECULE
*****
 20 21 0 0 0
SMALL
GASTEIGER

@<TRIPOS>ATOM
      1 C          61.4365   89.0701   10.6202 C.ar    1  UNL1        0.1418
      2 C          62.1178   87.7391   10.7390 C.ar    1  UNL1        0.0371
      3 C          61.7858   86.6380    9.7759 C.ar    1  UNL1        0.0061
      4 C          60.7725   86.8680    8.6942 C.ar    1  UNL1        0.0371
      5 C          60.0912   88.1990    8.5754 C.ar    1  UNL1        0.1418
      6 C          60.4231   89.3001    9.5384 C.ar    1  UNL1        0.0737
      7 C          63.0204   90.0959   12.4060 C.3     1  UNL1        0.2525
      8 O          61.7684   90.1712   11.5832 O.3     1  UNL1       -0.4713
      9 C          62.4672   85.3070    9.8947 C.2     1  UNL1        0.0035
     10 C          62.7773   84.7414   11.2490 C.2     1  UNL1        0.0435
     11 C          63.4587   83.4104   11.3678 C.2     1  UNL1        0.2111
     12 O          64.6821   83.1185   10.5504 O.2     1  UNL1       -0.2850
     13 C          62.9167   82.3713   12.3040 C.ar    1  UNL1        0.0961
     14 C          62.9323   80.8883   12.0797 C.ar    1  UNL1        0.0218
     15 C          62.2892   80.2332   13.2660 C.ar    1  UNL1        0.0200
     16 C          61.8760   81.3113   14.2235 C.ar    1  UNL1        0.0725
     17 N          62.2639   82.6328   13.6290 N.ar    1  UNL1       -0.3495
     18 H          62.1159   83.5165   14.0368 H       1  UNL1        0.1661
     19 O          59.0778   88.4290    7.4936 O.3     1  UNL1       -0.4713
     20 C          59.3023   89.5039    6.4718 C.3     1  UNL1        0.2525
@<TRIPOS>BOND
     1     7     8    1
     2     8     1    1
     3     1     2   ar
     4     2     3   ar
     5     3     9    1
     6     9    10    2
     7    10    11    1
     8    11    12    2
     9    11    13    1
    10    13    14   ar
    11    14    15   ar
    12    15    16   ar
    13    16    17   ar
    14     3     4   ar
    15     4     5   ar
    16     5    19    1
    17    19    20    1
    18     5     6   ar
    19     6     1   ar
    20    17    13   ar
    21    17    18    1
@<TRIPOS>MOLECULE
*****
 20 21 0 0 0
SMALL
GASTEIGER

@<TRIPOS>ATOM
      1 C          65.6161   92.0037   13.4696 C.ar    1  UNL1        0.1418
      2 C          64.4521   91.4519   12.7012 C.ar    1  UNL1        0.0371
      3 C          64.3015   91.7632   11.2416 C.ar    1  UNL1        0.0061
      4 C          65.3150   92.6263   10.5504 C.ar    1  UNL1        0.0371
      5 C          66.4790   93.1781   11.3188 C.ar    1  UNL1        0.1418
      6 C          66.6296   92.8668   12.7784 C.ar    1  UNL1        0.0737
      7 C          66.5409   92.6201   15.8180 C.3     1  UNL1        0.2525
      8 O          65.7667   91.6924   14.9292 O.3     1  UNL1       -0.4713
      9 C          63.1374   91.2113   10.4733 C.2     1  UNL1        0.0035
     10 C          62.1363   90.3296   11.1591 C.2     1  UNL1        0.0435
     11 C          60.9722   89.7777   10.3908 C.2     1  UNL1        0.2111
     12 O          59.7124   90.5811   10.2583 O.2     1  UNL1       -0.2850
     13 C          61.0679   88.4225    9.7550 C.ar    1  UNL1        0.0961
     14 C          62.2778   87.5360    9.7466 C.ar    1  UNL1        0.0218
     15 C          61.9281   86.2815    9.0023 C.ar    1  UNL1        0.0200
     16 C          60.5021   86.3927    8.5507 C.ar    1  UNL1        0.0725
     17 N          59.9704   87.7159    9.0159 N.ar    1  UNL1       -0.3495
     18 H          59.0608   88.0602    8.8629 H       1  UNL1        0.1661
     19 O          67.4926   94.0413   10.6276 O.3     1  UNL1       -0.4713
     20 C          68.0633   93.6169    9.3069 C.3     1  UNL1        0.2525
@<TRIPOS>BOND
     1     7     8    1
     2     8     1    1
     3     1     2   ar
     4     2     3   ar
     5     3     9    1
     6     9    10    2
     7    10    11    1
     8    11    12    2
     9    11    13    1
    10    13    14   ar
    11    14    15   ar
    12    15    16   ar
    13    16    17   ar
    14     3     4   ar
    15     4     5   ar
    16     5    19    1
    17    19    20    1
    18     5     6   ar
    19     6     1   ar
    20    17    13   ar
    21    17    18    1
@<TRIPOS>MOLECULE
*****
 20 21 0 0 0
SMALL
GASTEIGER

@<TRIPOS>ATOM
      1 C          60.2059   88.0331    8.7257 C.ar    1  UNL1        0.1418
      2 C          60.6149   86.7003    9.2792 C.ar    1  UNL1        0.0371
      3 C          61.5570   86.6292   10.4442 C.ar    1  UNL1        0.0061
      4 C          62.0900   87.8908   11.0559 C.ar    1  UNL1        0.0371
      5 C          61.6810   89.2236   10.5024 C.ar    1  UNL1        0.1418
      6 C          60.7389   89.2947    9.3373 C.ar    1  UNL1        0.0737
      7 C          59.2772   89.3015    6.6573 C.3     1  UNL1        0.2525
      8 O          59.2638   88.1042    7.5606 O.3     1  UNL1       -0.4713
      9 C          61.9661   85.2963   10.9977 C.2     1  UNL1        0.0035
     10 C          63.2247   84.6382   10.5152 C.2     1  UNL1        0.0435
     11 C          63.6338   83.3054   11.0686 C.2     1  UNL1        0.2111
     12 O          64.6266   82.4587   10.3286 O.2     1  UNL1       -0.2850
     13 C          63.0502   82.8193   12.3621 C.ar    1  UNL1        0.0961
     14 C          62.2886   81.5424   12.5610 C.ar    1  UNL1        0.0218
     15 C          61.8934   81.4586   14.0056 C.ar    1  UNL1        0.0200
     16 C          62.4108   82.6836   14.6995 C.ar    1  UNL1        0.0725
     17 N          63.1257   83.5245   13.6838 N.ar    1  UNL1       -0.3495
     18 H          63.5670   84.3878   13.8546 H       1  UNL1        0.1661
     19 O          62.2140   90.4853   11.1140 O.3     1  UNL1       -0.4713
     20 C          63.3085   91.2474   10.4276 C.3     1  UNL1        0.2525
@<TRIPOS>BOND
     1     7     8    1
     2     8     1    1
     3     1     2   ar
     4     2     3   ar
     5     3     9    1
     6     9    10    2
     7    10    11    1
     8    11    12    2
     9    11    13    1
    10    13    14   ar
    11    14    15   ar
    12    15    16   ar
    13    16    17   ar
    14     3     4   ar
    15     4     5   ar
    16     5    19    1
    17    19    20    1
    18     5     6   ar
    19     6     1   ar
    20    17    13   ar
    21    17    18    1
@<TRIPOS>MOLECULE
*****
 20 21 0 0 0
SMALL
GASTEIGER

@<TRIPOS>ATOM
      1 C          66.6359   92.8605   11.2298 C.ar    1  UNL1        0.1418
      2 C          65.4300   92.3900   10.4718 C.ar    1  UNL1        0.0371
      3 C          64.3065   91.7103   11.1969 C.ar    1  UNL1        0.0061
      4 C          64.3888   91.5011   12.6799 C.ar    1  UNL1        0.0371
      5 C          65.5946   91.9716   13.4379 C.ar    1  UNL1        0.1418
      6 C          66.7182   92.6513   12.7128 C.ar    1  UNL1        0.0737
      7 C          68.4396   92.8497    9.3599 C.3     1  UNL1        0.2525
      8 O          67.7594   93.5402   10.5047 O.3     1  UNL1       -0.4713
      9 C          63.1007   91.2398   10.4388 C.2     1  UNL1        0.0035
     10 C          62.2565   90.1279   10.9877 C.2     1  UNL1        0.0435
     11 C          61.0507   89.6574   10.2297 C.2     1  UNL1        0.2111
     12 O          59.8279   90.5230   10.1533 O.2     1  UNL1       -0.2850
     13 C          61.0676   88.3213    9.5481 C.ar    1  UNL1        0.0961
     14 C          62.1668   87.3040    9.6291 C.ar    1  UNL1        0.0218
     15 C          61.7668   86.1219    8.7969 C.ar    1  UNL1        0.0200
     16 C          60.4202   86.4087    8.2014 C.ar    1  UNL1        0.0725
     17 N          59.9881   87.7680    8.6657 N.ar    1  UNL1       -0.3495
     18 H          59.1441   88.2180    8.4323 H       1  UNL1        0.1661
     19 O          65.6770   91.7625   14.9210 O.3     1  UNL1       -0.4713
     20 C          66.5901   92.6169   15.7493 C.3     1  UNL1        0.2525
@<TRIPOS>BOND
     1     7     8    1
     2     8     1    1
     3     1     2   ar
     4     2     3   ar
     5     3     9    1
     6     9    10    2
     7    10    11    1
     8    11    12    2
     9    11    13    1
    10    13    14   ar
    11    14    15   ar
    12    15    16   ar
    13    16    17   ar
    14     3     4   ar
    15     4     5   ar
    16     5    19    1
    17    19    20    1
    18     5     6   ar
    19     6     1   ar
    20    17    13   ar
    21    17    18    1
@<TRIPOS>MOLECULE
*****
 20 21 0 0 0
SMALL
GASTEIGER

@<TRIPOS>ATOM
      1 C          62.1689   88.9383   10.7599 C.ar    1  UNL1        0.1418
      2 C          62.6122   87.7237   11.5202 C.ar    1  UNL1        0.0371
      3 C          62.0797   86.3712   11.1496 C.ar    1  UNL1        0.0061
      4 C          61.1040   86.2334   10.0187 C.ar    1  UNL1        0.0371
      5 C          60.6608   87.4481    9.2584 C.ar    1  UNL1        0.1418
      6 C          61.1932   88.8005    9.6290 C.ar    1  UNL1        0.0737
      7 C          63.3504   90.5010   12.4664 C.3     1  UNL1        0.2525
      8 O          62.7014   90.2908   11.1306 O.3     1  UNL1       -0.4713
      9 C          62.5230   85.1565   11.9100 C.2     1  UNL1        0.0035
     10 C          63.4445   85.3019   13.0846 C.2     1  UNL1        0.0435
     11 C          63.8878   84.0873   13.8450 C.2     1  UNL1        0.2111
     12 O          65.1055   84.1524   14.7186 O.2     1  UNL1       -0.2850
     13 C          63.1134   82.8076   13.7318 C.ar    1  UNL1        0.0961
     14 C          63.3591   81.7136   12.7355 C.ar    1  UNL1        0.0218
     15 C          62.3550   80.6271   12.9830 C.ar    1  UNL1        0.0200
     16 C          61.4887   81.0497   14.1323 C.ar    1  UNL1        0.0725
     17 N          61.9574   82.3973   14.5951 N.ar    1  UNL1       -0.3495
     18 H          61.5737   82.9206   15.3355 H       1  UNL1        0.1661
     19 O          59.6851   87.3103    8.1274 O.3     1  UNL1       -0.4713
     20 C          59.2439   88.5246    7.3654 C.3     1  UNL1        0.2525
@<TRIPOS>BOND
     1     7     8    1
     2     8     1    1
     3     1     2   ar
     4     2     3   ar
     5     3     9    1
     6     9    10    2
     7    10    11    1
     8    11    12    2
     9    11    13    1
    10    13    14   ar
    11    14    15   ar
    12    15    16   ar
    13    16    17   ar
    14     3     4   ar
    15     4     5   ar
    16     5    19    1
    17    19    20    1
    18     5     6   ar
    19     6     1   ar
    20    17    13   ar
    21    17    18    1
@<TRIPOS>MOLECULE
*****
 20 21 0 0 0
SMALL
GASTEIGER

@<TRIPOS>ATOM
      1 C          62.8088   82.3356   14.2300 C.ar    1  UNL1        0.1418
      2 C          62.7842   82.7795   12.7974 C.ar    1  UNL1        0.0371
      3 C          63.1204   84.1985   12.4461 C.ar    1  UNL1        0.0061
      4 C          63.4812   85.1736   13.5273 C.ar    1  UNL1        0.0371
      5 C          63.5058   84.7296   14.9598 C.ar    1  UNL1        0.1418
      6 C          63.1696   83.3107   15.3112 C.ar    1  UNL1        0.0737
      7 C          62.1611   79.9289   13.4963 C.3     1  UNL1        0.2525
      8 O          62.4726   80.9166   14.5814 O.3     1  UNL1       -0.4713
      9 C          63.0958   84.6424   11.0134 C.2     1  UNL1        0.0035
     10 C          61.9994   85.5425   10.5259 C.2     1  UNL1        0.0435
     11 C          61.9747   85.9864    9.0933 C.2     1  UNL1        0.2111
     12 O          62.9735   85.4344    8.1198 O.2     1  UNL1       -0.2850
     13 C          60.9512   86.9823    8.6342 C.ar    1  UNL1        0.0961
     14 C          59.7766   86.6941    7.7470 C.ar    1  UNL1        0.0218
     15 C          59.0221   87.9749    7.5462 C.ar    1  UNL1        0.0200
     16 C          59.7304   89.0547    8.3093 C.ar    1  UNL1        0.0725
     17 N          60.9227   88.4412    8.9817 N.ar    1  UNL1       -0.3495
     18 H          61.5724   88.9132    9.5512 H       1  UNL1        0.1661
     19 O          63.8666   85.7047   16.0411 O.3     1  UNL1       -0.4713
     20 C          62.8769   86.0269   17.1213 C.3     1  UNL1        0.2525
@<TRIPOS>BOND
     1     7     8    1
     2     8     1    1
     3     1     2   ar
     4     2     3   ar
     5     3     9    1
     6     9    10    2
     7    10    11    1
     8    11    12    2
     9    11    13    1
    10    13    14   ar
    11    14    15   ar
    12    15    16   ar
    13    16    17   ar
    14     3     4   ar
    15     4     5   ar
    16     5    19    1
    17    19    20    1
    18     5     6   ar
    19     6     1   ar
    20    17    13   ar
    21    17    18    1
@<TRIPOS>MOLECULE
*****
 20 21 0 0 0
SMALL
GASTEIGER

@<TRIPOS>ATOM
      1 C          63.3237   82.2519   14.0675 C.ar    1  UNL1        0.1418
      2 C          62.9071   82.8532   12.7580 C.ar    1  UNL1        0.0371
      3 C          62.8859   84.3436   12.5900 C.ar    1  UNL1        0.0061
      4 C          63.2814   85.2327   13.7315 C.ar    1  UNL1        0.0371
      5 C          63.6981   84.6314   15.0410 C.ar    1  UNL1        0.1418
      6 C          63.7192   83.1410   15.2090 C.ar    1  UNL1        0.0737
      7 C          62.3807   79.9064   13.4679 C.3     1  UNL1        0.2525
      8 O          63.3448   80.7615   14.2356 O.3     1  UNL1       -0.4713
      9 C          62.4693   84.9448   11.2804 C.2     1  UNL1        0.0035
     10 C          62.3268   86.4323   11.1496 C.2     1  UNL1        0.0435
     11 C          61.9102   87.0336    9.8401 C.2     1  UNL1        0.2111
     12 O          61.5751   88.4934    9.7579 O.2     1  UNL1       -0.2850
     13 C          61.8287   86.1751    8.6128 C.ar    1  UNL1        0.0961
     14 C          62.9546   85.3874    8.0114 C.ar    1  UNL1        0.0218
     15 C          62.4287   84.6791    6.7983 C.ar    1  UNL1        0.0200
     16 C          60.9777   85.0291    6.6498 C.ar    1  UNL1        0.0725
     17 N          60.6069   85.9537    7.7713 N.ar    1  UNL1       -0.3495
     18 H          59.7177   86.3463    7.9276 H       1  UNL1        0.1661
     19 O          64.0936   85.5205   16.1825 O.3     1  UNL1       -0.4713
     20 C          63.0389   86.1456   17.0467 C.3     1  UNL1        0.2525
@<TRIPOS>BOND
     1     7     8    1
     2     8     1    1
     3     1     2   ar
     4     2     3   ar
     5     3     9    1
     6     9    10    2
     7    10    11    1
     8    11    12    2
     9    11    13    1
    10    13    14   ar
    11    14    15   ar
    12    15    16   ar
    13    16    17   ar
    14     3     4   ar
    15     4     5   ar
    16     5    19    1
    17    19    20    1
    18     5     6   ar
    19     6     1   ar
    20    17    13   ar
    21    17    18    1
@<TRIPOS>MOLECULE
*****
 20 21 0 0 0
SMALL
GASTEIGER

@<TRIPOS>ATOM
      1 C          61.2450   89.2250    9.8815 C.ar    1  UNL1        0.1418
      2 C          62.0030   90.3825   10.4607 C.ar    1  UNL1        0.0371
      3 C          62.9703   90.1584   11.5850 C.ar    1  UNL1        0.0061
      4 C          63.1796   88.7767   12.1301 C.ar    1  UNL1        0.0371
      5 C          62.4216   87.6192   11.5509 C.ar    1  UNL1        0.1418
      6 C          61.4543   87.8433   10.4266 C.ar    1  UNL1        0.0737
      7 C          59.7109   88.2780    8.0107 C.3     1  UNL1        0.2525
      8 O          60.2777   89.4491    8.7572 O.3     1  UNL1       -0.4713
      9 C          63.7284   91.3160   12.1642 C.2     1  UNL1        0.0035
     10 C          64.8559   91.9354   11.3928 C.2     1  UNL1        0.0435
     11 C          65.6139   93.0930   11.9719 C.2     1  UNL1        0.2111
     12 O          65.7704   93.2187   13.4584 O.2     1  UNL1       -0.2850
     13 C          66.2155   94.1248   11.0645 C.ar    1  UNL1        0.0961
     14 C          66.1621   95.6109   11.2614 C.ar    1  UNL1        0.0218
     15 C          66.8898   96.2563   10.1195 C.ar    1  UNL1        0.0200
     16 C          67.3929   95.1691    9.2168 C.ar    1  UNL1        0.0725
     17 N          66.9762   93.8518    9.8009 N.ar    1  UNL1       -0.3495
     18 H          67.1683   92.9639    9.4214 H       1  UNL1        0.1661
     19 O          62.6308   86.2375   12.0961 O.3     1  UNL1       -0.4713
     20 C          62.3283   85.0411   11.2435 C.3     1  UNL1        0.2525
@<TRIPOS>BOND
     1     7     8    1
     2     8     1    1
     3     1     2   ar
     4     2     3   ar
     5     3     9    1
     6     9    10    2
     7    10    11    1
     8    11    12    2
     9    11    13    1
    10    13    14   ar
    11    14    15   ar
    12    15    16   ar
    13    16    17   ar
    14     3     4   ar
    15     4     5   ar
    16     5    19    1
    17    19    20    1
    18     5     6   ar
    19     6     1   ar
    20    17    13   ar
    21    17    18    1
@<TRIPOS>MOLECULE
*****
 20 21 0 0 0
SMALL
GASTEIGER

@<TRIPOS>ATOM
      1 C          60.4142   88.3900    9.4381 C.ar    1  UNL1        0.1418
      2 C          61.1415   87.7978   10.6086 C.ar    1  UNL1        0.0371
      3 C          61.6318   86.3815   10.5485 C.ar    1  UNL1        0.0061
      4 C          61.3947   85.5573    9.3179 C.ar    1  UNL1        0.0371
      5 C          60.6674   86.1495    8.1473 C.ar    1  UNL1        0.1418
      6 C          60.1771   87.5658    8.2074 C.ar    1  UNL1        0.0737
      7 C          59.8773   90.5288   10.8118 C.3     1  UNL1        0.2525
      8 O          59.9239   89.8063    9.4981 O.3     1  UNL1       -0.4713
      9 C          62.3592   85.7893   11.7192 C.2     1  UNL1        0.0035
     10 C          62.7466   84.3403   11.7064 C.2     1  UNL1        0.0435
     11 C          63.4740   83.7481   12.8770 C.2     1  UNL1        0.2111
     12 O          64.2894   82.5014   12.7007 O.2     1  UNL1       -0.2850
     13 C          63.3860   84.4025   14.2238 C.ar    1  UNL1        0.0961
     14 C          64.4577   85.2244   14.8764 C.ar    1  UNL1        0.0218
     15 C          63.9449   85.6798   16.2105 C.ar    1  UNL1        0.0200
     16 C          62.5563   85.1394   16.3824 C.ar    1  UNL1        0.0725
     17 N          62.2108   84.3500   15.1545 N.ar    1  UNL1       -0.3495
     18 H          61.3619   83.8799   14.9887 H       1  UNL1        0.1661
     19 O          60.4303   85.3253    6.9166 O.3     1  UNL1       -0.4713
     20 C          61.5724   84.6019    6.2669 C.3     1  UNL1        0.2525
@<TRIPOS>BOND
     1     7     8    1
     2     8     1    1
     3     1     2   ar
     4     2     3   ar
     5     3     9    1
     6     9    10    2
     7    10    11    1
     8    11    12    2
     9    11    13    1
    10    13    14   ar
    11    14    15   ar
    12    15    16   ar
    13    16    17   ar
    14     3     4   ar
    15     4     5   ar
    16     5    19    1
    17    19    20    1
    18     5     6   ar
    19     6     1   ar
    20    17    13   ar
    21    17    18    1
