@<TRIPOS>MOLECULE
*****
 62 68 0 0 0
SMALL
GASTEIGER

@<TRIPOS>ATOM
      1 N          58.6650   95.4448   -5.8562 N.3     1  UNL1       -0.1862
      2 C          59.7364   95.4128   -6.9055 C.3     1  UNL1        0.1775
      3 C          61.1765   95.5581   -6.5116 C.2     1  UNL1        0.2452
      4 O          62.2479   95.5260   -7.5609 O.2     1  UNL1       -0.2732
      5 N          61.5451   95.7354   -5.0685 N.am    1  UNL1       -0.2541
      6 C          62.9852   95.8808   -4.6746 C.3     1  UNL1        0.1577
      7 C          63.3538   96.0581   -3.2315 C.2     1  UNL1        0.2445
      8 O          64.7939   96.2035   -2.8377 O.2     1  UNL1       -0.2731
      9 N          62.2824   96.0902   -2.1822 N.am    1  UNL1       -0.2705
     10 C          60.8423   95.9449   -2.5760 C.3     1  UNL1        0.1359
     11 C          60.4737   95.7675   -4.0192 C.3     1  UNL1        0.1908
     12 N          59.0336   95.6222   -4.4131 N.am    1  UNL1       -0.1863
     13 C          57.9622   95.6542   -3.3638 C.2     1  UNL1        0.3191
     14 O          58.3308   95.8316   -1.9207 O.2     1  UNL1       -0.2512
     15 N          56.5221   95.5089   -3.7576 N.am    1  UNL1       -0.2836
     16 H          56.2802   95.3925   -4.7048 H       1  UNL1        0.1513
     17 C          57.2250   95.2995   -6.2501 C.3     1  UNL1        0.1188
     18 C          55.3457   93.9498   -7.4318 C.2     1  UNL1       -0.0034
     19 C          56.7565   94.0482   -6.9318 C.2     1  UNL1       -0.0071
     20 C          64.0566   95.8487   -5.7239 C.3     1  UNL1        0.0556
     21 C          64.6350   94.5371   -6.1654 C.ar    1  UNL1       -0.0198
     22 C          64.0415   93.2513   -5.6711 C.ar    1  UNL1       -0.0011
     23 C          64.6199   91.9396   -6.1126 C.ar    1  UNL1        0.0363
     24 C          65.7918   91.9137   -7.0485 C.ar    1  UNL1        0.1337
     25 O          66.3702   90.6020   -7.4900 O.3     1  UNL1       -0.5055
     26 C          66.3853   93.1995   -7.5429 C.ar    1  UNL1        0.0363
     27 C          65.8069   94.5112   -7.1014 C.ar    1  UNL1       -0.0011
     28 H          65.9994   89.7988   -7.1812 H       1  UNL1        0.2922
     29 C          62.6510   96.2675   -0.7391 C.3     1  UNL1        0.1217
     30 C          62.9778   95.0707    0.1041 C.ar    1  UNL1        0.0135
     31 C          64.3100   94.3956   -0.0363 C.ar    1  UNL1       -0.0012
     32 C          64.6369   93.1989    0.8068 C.ar    1  UNL1       -0.0002
     33 C          63.6316   92.6772    1.7903 C.ar    1  UNL1        0.0016
     34 C          62.2995   93.3523    1.9307 C.ar    1  UNL1        0.0214
     35 C          61.1171   93.0667    2.8084 C.ar    1  UNL1        0.0719
     36 C          60.0595   94.0870    2.5077 C.ar    1  UNL1        0.0805
     37 N          60.5882   95.0031    1.4442 N.ar    1  UNL1       -0.3241
     38 C          59.8603   96.1687    0.8429 C.3     1  UNL1        0.1305
     39 C          61.9726   94.5491    1.0876 C.ar    1  UNL1        0.0577
     40 C          61.0110   91.9558    3.8109 C.2     1  UNL1        0.2473
     41 O          62.0551   90.8797    3.8511 O.2     1  UNL1       -0.2701
     42 N          59.8607   91.9212    4.7730 N.am    1  UNL1       -0.3023
     43 H          59.1754   92.6275    4.7465 H       1  UNL1        0.1497
     44 C          59.7546   90.8104    5.7754 C.3     1  UNL1        0.0753
     45 C          60.6962   90.7604    6.9419 C.3     1  UNL1        0.0411
     46 C          60.5901   89.6497    7.9444 C.3     1  UNL1        0.0951
     47 N          59.5424   88.5889    7.7803 N.am    1  UNL1       -0.2794
     48 C          59.4362   87.4781    8.7827 C.2     1  UNL1        0.2282
     49 O          58.3884   86.4173    8.6186 O.2     1  UNL1       -0.2748
     50 C          58.6007   88.6389    6.6138 C.3     1  UNL1        0.0951
     51 C          58.7068   89.7496    5.6113 C.3     1  UNL1        0.0411
     52 C          60.3778   87.4281    9.9493 C.3     1  UNL1        0.1169
     53 C          60.0332   88.1421   11.2226 C.3     1  UNL1        0.1467
     54 O          59.9830   89.6410   11.2520 O.3     1  UNL1       -0.3815
     55 H          60.8726   89.9973   11.1017 H       1  UNL1        0.2105
     56 C          55.4507   95.5409   -2.7084 C.3     1  UNL1        0.1177
     57 C          54.0228   95.7785   -3.1015 C.ar    1  UNL1       -0.0025
     58 C          52.9421   95.7385   -2.0621 C.ar    1  UNL1       -0.0026
     59 C          51.5142   95.9761   -2.4553 C.ar    1  UNL1       -0.0003
     60 C          51.1669   96.2536   -3.8879 C.ar    1  UNL1       -0.0000
     61 C          52.2477   96.2936   -4.9274 C.ar    1  UNL1       -0.0003
     62 C          53.6756   96.0560   -4.5342 C.ar    1  UNL1       -0.0026
@<TRIPOS>BOND
     1    18    19    2
     2    19    17    1
     3    17     1    1
     4     1     2    1
     5     2     3    1
     6     3     4    2
     7     3     5   am
     8     5     6    1
     9     6    20    1
    10    20    21    1
    11    21    22   ar
    12    22    23   ar
    13    23    24   ar
    14    24    25    1
    15    24    26   ar
    16    26    27   ar
    17     6     7    1
    18     7     8    2
    19     7     9   am
    20     9    29    1
    21    29    30    1
    22    30    31   ar
    23    31    32   ar
    24    32    33   ar
    25    33    34   ar
    26    34    35   ar
    27    35    40    1
    28    40    41    2
    29    40    42   am
    30    42    44    1
    31    44    45    1
    32    45    46    1
    33    46    47    1
    34    47    48   am
    35    48    49    2
    36    48    52    1
    37    52    53    1
    38    53    54    1
    39    47    50    1
    40    50    51    1
    41    35    36   ar
    42    36    37   ar
    43    37    38    1
    44    37    39   ar
    45     9    10    1
    46    11    10    1
    47    11    12    1
    48    12    13   am
    49    13    14    2
    50    13    15   am
    51    15    56    1
    52    56    57    1
    53    57    58   ar
    54    58    59   ar
    55    59    60   ar
    56    60    61   ar
    57    61    62   ar
    58    12     1    1
    59    62    57   ar
    60    11     5    1
    61    27    21   ar
    62    39    30   ar
    63    39    34   ar
    64    51    44    1
    65    25    28    1
    66    42    43    1
    67    54    55    1
    68    15    16    1
@<TRIPOS>MOLECULE
*****
 62 68 0 0 0
SMALL
GASTEIGER

@<TRIPOS>ATOM
      1 N          62.1903   94.8546   -3.4740 N.3     1  UNL1       -0.1862
      2 C          61.0825   94.4932   -4.4184 C.3     1  UNL1        0.1775
      3 C          59.7733   93.9939   -3.8828 C.2     1  UNL1        0.2452
      4 O          58.6654   93.6325   -4.8273 O.2     1  UNL1       -0.2732
      5 N          59.5720   93.8561   -2.4028 N.am    1  UNL1       -0.2541
      6 C          58.2629   93.3568   -1.8672 C.3     1  UNL1        0.1577
      7 C          58.0616   93.2190   -0.3873 C.2     1  UNL1        0.2445
      8 O          56.7524   92.7197    0.1483 O.2     1  UNL1       -0.2731
      9 N          59.1695   93.5804    0.5572 N.am    1  UNL1       -0.2705
     10 C          60.4787   94.0797    0.0217 C.3     1  UNL1        0.1359
     11 C          60.6799   94.2175   -1.4584 C.3     1  UNL1        0.1908
     12 N          61.9891   94.7168   -1.9940 N.am    1  UNL1       -0.1863
     13 C          63.0970   95.0782   -1.0495 C.2     1  UNL1        0.3191
     14 O          62.8957   94.9403    0.4305 O.2     1  UNL1       -0.2512
     15 N          64.4061   95.5774   -1.5851 N.am    1  UNL1       -0.2836
     16 H          64.5382   95.6679   -2.5565 H       1  UNL1        0.1513
     17 C          63.4995   95.3539   -4.0096 C.3     1  UNL1        0.1188
     18 C          64.9341   95.2548   -6.1734 C.2     1  UNL1       -0.0034
     19 C          63.6567   95.6205   -5.4773 C.2     1  UNL1       -0.0071
     20 C          57.1550   92.9954   -2.8117 C.3     1  UNL1        0.0556
     21 C          56.0330   93.9605   -3.0560 C.ar    1  UNL1       -0.0198
     22 C          55.8371   94.5531   -4.4200 C.ar    1  UNL1       -0.0011
     23 C          54.7151   95.5182   -4.6643 C.ar    1  UNL1        0.0363
     24 C          53.7890   95.8907   -3.5447 C.ar    1  UNL1        0.1337
     25 O          52.6670   96.8558   -3.7890 O.3     1  UNL1       -0.5055
     26 C          53.9849   95.2981   -2.1806 C.ar    1  UNL1        0.0363
     27 C          55.1069   94.3330   -1.9363 C.ar    1  UNL1       -0.0011
     28 H          52.5446   97.2259   -4.6411 H       1  UNL1        0.2922
     29 C          58.9682   93.4425    2.0372 C.3     1  UNL1        0.1217
     30 C          59.8862   92.5699    2.8410 C.ar    1  UNL1        0.0135
     31 C          61.3408   92.4830    2.4850 C.ar    1  UNL1       -0.0012
     32 C          62.2588   91.6105    3.2887 C.ar    1  UNL1       -0.0002
     33 C          61.7222   90.8248    4.4483 C.ar    1  UNL1        0.0016
     34 C          60.2676   90.9117    4.8042 C.ar    1  UNL1        0.0214
     35 C          59.4580   90.2584    5.8848 C.ar    1  UNL1        0.0719
     36 C          58.0396   90.7271    5.7489 C.ar    1  UNL1        0.0805
     37 N          57.9727   91.6702    4.5845 N.ar    1  UNL1       -0.3241
     38 C          56.7444   92.3754    4.0905 C.3     1  UNL1        0.1305
     39 C          59.3496   91.7843    4.0006 C.ar    1  UNL1        0.0577
     40 C          59.9758   89.3038    6.9196 C.2     1  UNL1        0.2473
     41 O          59.8290   87.8249    6.7160 O.2     1  UNL1       -0.2701
     42 N          60.6405   89.8281    8.1579 N.am    1  UNL1       -0.3023
     43 H          60.7368   90.7987    8.2914 H       1  UNL1        0.1497
     44 C          61.1583   88.8736    9.1926 C.3     1  UNL1        0.0753
     45 C          60.8266   87.4137    9.0991 C.3     1  UNL1        0.0411
     46 C          61.3444   86.4592   10.1339 C.3     1  UNL1        0.0951
     47 N          62.1939   86.9645   11.2621 N.am    1  UNL1       -0.2794
     48 C          62.7118   86.0100   12.2968 C.2     1  UNL1        0.2282
     49 O          63.5613   86.5153   13.4251 O.2     1  UNL1       -0.2748
     50 C          62.5257   88.4244   11.3556 C.3     1  UNL1        0.0951
     51 C          62.0079   89.3789   10.3208 C.3     1  UNL1        0.0411
     52 C          62.3801   84.5501   12.2034 C.3     1  UNL1        0.1169
     53 C          63.2537   83.5375   12.8826 C.3     1  UNL1        0.1467
     54 O          62.8203   82.1034   12.9584 O.3     1  UNL1       -0.3815
     55 H          62.0287   82.0339   13.5146 H       1  UNL1        0.2105
     56 C          65.5140   95.9389   -0.6407 C.3     1  UNL1        0.1177
     57 C          65.3543   95.6959    0.8309 C.ar    1  UNL1       -0.0025
     58 C          65.2999   96.8553    1.7809 C.ar    1  UNL1       -0.0026
     59 C          65.1402   96.6123    3.2524 C.ar    1  UNL1       -0.0003
     60 C          65.0349   95.2099    3.7739 C.ar    1  UNL1       -0.0000
     61 C          65.0893   94.0503    2.8239 C.ar    1  UNL1       -0.0003
     62 C          65.2490   94.2933    1.3523 C.ar    1  UNL1       -0.0026
@<TRIPOS>BOND
     1    18    19    2
     2    19    17    1
     3    17     1    1
     4     1     2    1
     5     2     3    1
     6     3     4    2
     7     3     5   am
     8     5     6    1
     9     6    20    1
    10    20    21    1
    11    21    22   ar
    12    22    23   ar
    13    23    24   ar
    14    24    25    1
    15    24    26   ar
    16    26    27   ar
    17     6     7    1
    18     7     8    2
    19     7     9   am
    20     9    29    1
    21    29    30    1
    22    30    31   ar
    23    31    32   ar
    24    32    33   ar
    25    33    34   ar
    26    34    35   ar
    27    35    40    1
    28    40    41    2
    29    40    42   am
    30    42    44    1
    31    44    45    1
    32    45    46    1
    33    46    47    1
    34    47    48   am
    35    48    49    2
    36    48    52    1
    37    52    53    1
    38    53    54    1
    39    47    50    1
    40    50    51    1
    41    35    36   ar
    42    36    37   ar
    43    37    38    1
    44    37    39   ar
    45     9    10    1
    46    11    10    1
    47    11    12    1
    48    12    13   am
    49    13    14    2
    50    13    15   am
    51    15    56    1
    52    56    57    1
    53    57    58   ar
    54    58    59   ar
    55    59    60   ar
    56    60    61   ar
    57    61    62   ar
    58    12     1    1
    59    62    57   ar
    60    11     5    1
    61    27    21   ar
    62    39    30   ar
    63    39    34   ar
    64    51    44    1
    65    25    28    1
    66    42    43    1
    67    54    55    1
    68    15    16    1
@<TRIPOS>MOLECULE
*****
 62 68 0 0 0
SMALL
GASTEIGER

@<TRIPOS>ATOM
      1 N          57.9536   95.4278   -3.9039 N.3     1  UNL1       -0.1862
      2 C          59.3195   95.0811   -4.4176 C.3     1  UNL1        0.1775
      3 C          60.3273   94.4510   -3.5025 C.2     1  UNL1        0.2452
      4 O          61.6933   94.1043   -4.0163 O.2     1  UNL1       -0.2732
      5 N          59.9691   94.1676   -2.0738 N.am    1  UNL1       -0.2541
      6 C          60.9769   93.5375   -1.1587 C.3     1  UNL1        0.1577
      7 C          60.6188   93.2542    0.2701 C.2     1  UNL1        0.2445
      8 O          61.6266   92.6241    1.1851 O.2     1  UNL1       -0.2731
      9 N          59.2528   93.6009    0.7838 N.am    1  UNL1       -0.2705
     10 C          58.2450   94.2310   -0.1312 C.3     1  UNL1        0.1359
     11 C          58.6032   94.5144   -1.5601 C.3     1  UNL1        0.1908
     12 N          57.5954   95.1445   -2.4751 N.am    1  UNL1       -0.1863
     13 C          56.2294   95.4912   -1.9614 C.2     1  UNL1        0.3191
     14 O          55.8713   95.2078   -0.5326 O.2     1  UNL1       -0.2512
     15 N          55.2216   96.1213   -2.8764 N.am    1  UNL1       -0.2836
     16 H          55.4567   96.3073   -3.8142 H       1  UNL1        0.1513
     17 C          56.9458   96.0579   -4.8190 C.3     1  UNL1        0.1188
     18 C          55.8998   95.9902   -7.1962 C.2     1  UNL1       -0.0034
     19 C          56.3856   95.2760   -5.9699 C.2     1  UNL1       -0.0071
     20 C          62.3429   93.1908   -1.6724 C.3     1  UNL1        0.0556
     21 C          63.5006   94.1052   -1.4012 C.ar    1  UNL1       -0.0198
     22 C          64.1546   94.1072   -0.0514 C.ar    1  UNL1       -0.0011
     23 C          65.3123   95.0217    0.2198 C.ar    1  UNL1        0.0363
     24 C          65.8160   95.9341   -0.8589 C.ar    1  UNL1        0.1337
     25 O          66.9737   96.8486   -0.5878 O.3     1  UNL1       -0.5055
     26 C          65.1620   95.9321   -2.2089 C.ar    1  UNL1        0.0363
     27 C          64.0043   95.0177   -2.4800 C.ar    1  UNL1       -0.0011
     28 H          67.3822   96.8498    0.2555 H       1  UNL1        0.2922
     29 C          58.8946   93.3175    2.2126 C.3     1  UNL1        0.1217
     30 C          59.8015   92.4755    3.0603 C.ar    1  UNL1        0.0135
     31 C          61.2755   92.4483    2.7836 C.ar    1  UNL1       -0.0012
     32 C          62.1823   91.6063    3.6313 C.ar    1  UNL1       -0.0002
     33 C          61.6152   90.7915    4.7557 C.ar    1  UNL1        0.0016
     34 C          60.1412   90.8186    5.0324 C.ar    1  UNL1        0.0214
     35 C          59.3006   90.1260    6.0637 C.ar    1  UNL1        0.0719
     36 C          57.8743   90.5399    5.8534 C.ar    1  UNL1        0.0805
     37 N          57.8333   91.4883    4.6922 N.ar    1  UNL1       -0.3241
     38 C          56.6067   92.1486    4.1359 C.3     1  UNL1        0.1305
     39 C          59.2343   91.6606    4.1847 C.ar    1  UNL1        0.0577
     40 C          59.7990   89.1846    7.1200 C.2     1  UNL1        0.2473
     41 O          59.2619   87.7859    7.1920 O.2     1  UNL1       -0.2701
     42 N          60.8345   89.6419    8.1042 N.am    1  UNL1       -0.3023
     43 H          61.1870   90.5599    8.0569 H       1  UNL1        0.1497
     44 C          61.3328   88.7006    9.1604 C.3     1  UNL1        0.0753
     45 C          61.1916   87.2192    8.9718 C.3     1  UNL1        0.0411
     46 C          61.6899   86.2779   10.0280 C.3     1  UNL1        0.0951
     47 N          62.3295   86.8179   11.2727 N.am    1  UNL1       -0.2794
     48 C          62.8279   85.8767   12.3289 C.2     1  UNL1        0.2282
     49 O          63.4674   86.4167   13.5736 O.2     1  UNL1       -0.2748
     50 C          62.4707   88.2993   11.4612 C.3     1  UNL1        0.0951
     51 C          61.9724   89.2407   10.4051 C.3     1  UNL1        0.0411
     52 C          62.6867   84.3952   12.1404 C.3     1  UNL1        0.1169
     53 C          63.8838   83.5032   12.2856 C.3     1  UNL1        0.1467
     54 O          64.8519   83.7242   13.4100 O.3     1  UNL1       -0.3815
     55 H          65.2984   84.5767   13.2892 H       1  UNL1        0.2105
     56 C          53.8557   96.4680   -2.3628 C.3     1  UNL1        0.1177
     57 C          52.6779   96.4484   -3.2914 C.ar    1  UNL1       -0.0025
     58 C          52.8841   96.2207   -4.7596 C.ar    1  UNL1       -0.0026
     59 C          51.7063   96.2011   -5.6882 C.ar    1  UNL1       -0.0003
     60 C          50.3222   96.4093   -5.1487 C.ar    1  UNL1       -0.0000
     61 C          50.1160   96.6370   -3.6804 C.ar    1  UNL1       -0.0003
     62 C          51.2938   96.6566   -2.7518 C.ar    1  UNL1       -0.0026
@<TRIPOS>BOND
     1    18    19    2
     2    19    17    1
     3    17     1    1
     4     1     2    1
     5     2     3    1
     6     3     4    2
     7     3     5   am
     8     5     6    1
     9     6    20    1
    10    20    21    1
    11    21    22   ar
    12    22    23   ar
    13    23    24   ar
    14    24    25    1
    15    24    26   ar
    16    26    27   ar
    17     6     7    1
    18     7     8    2
    19     7     9   am
    20     9    29    1
    21    29    30    1
    22    30    31   ar
    23    31    32   ar
    24    32    33   ar
    25    33    34   ar
    26    34    35   ar
    27    35    40    1
    28    40    41    2
    29    40    42   am
    30    42    44    1
    31    44    45    1
    32    45    46    1
    33    46    47    1
    34    47    48   am
    35    48    49    2
    36    48    52    1
    37    52    53    1
    38    53    54    1
    39    47    50    1
    40    50    51    1
    41    35    36   ar
    42    36    37   ar
    43    37    38    1
    44    37    39   ar
    45     9    10    1
    46    11    10    1
    47    11    12    1
    48    12    13   am
    49    13    14    2
    50    13    15   am
    51    15    56    1
    52    56    57    1
    53    57    58   ar
    54    58    59   ar
    55    59    60   ar
    56    60    61   ar
    57    61    62   ar
    58    12     1    1
    59    62    57   ar
    60    11     5    1
    61    27    21   ar
    62    39    30   ar
    63    39    34   ar
    64    51    44    1
    65    25    28    1
    66    42    43    1
    67    54    55    1
    68    15    16    1
