@<TRIPOS>MOLECULE
*****
 35 39 0 0 0
SMALL
GASTEIGER

@<TRIPOS>ATOM
      1 C          63.1204   90.5201   11.5813 C.3     1  UNL1        0.1095
      2 C          63.3335   91.4126   10.3947 C.3     1  UNL1        0.1598
      3 O          64.4444   92.4204   10.4042 O.3     1  UNL1       -0.3508
      4 C          65.3422   92.5357   11.6003 C.3     1  UNL1        0.1598
      5 C          65.1292   91.6432   12.7869 C.3     1  UNL1        0.1091
      6 N          64.0182   90.6354   12.7774 N.3     1  UNL1       -0.1533
      7 C          62.0094   89.5122   11.5718 C.3     1  UNL1        0.0261
      8 C          60.6225   88.9436   11.5156 C.3     1  UNL1        0.0020
      9 C          60.8288   90.4272   11.4337 C.3     1  UNL1        0.0020
     10 C          62.8043   88.2473   11.7067 C.3     1  UNL1        0.0867
     11 O          62.0921   87.3605    9.3708 O.2     1  UNL1       -0.2749
     12 C          62.5510   87.0994   10.7748 C.2     1  UNL1        0.2258
     13 N          62.7566   85.6907   11.2469 N.am    1  UNL1       -0.2767
     14 C          63.2155   85.4296   12.6509 C.3     1  UNL1        0.1107
     15 C          63.4211   84.0207   13.1230 C.3     1  UNL1        0.0940
     16 N          63.1679   82.8730   12.1912 N.3     1  UNL1       -0.2677
     17 C          62.7090   83.1339   10.7872 C.3     1  UNL1        0.0940
     18 C          62.5033   84.5428   10.3150 C.3     1  UNL1        0.1107
     19 C          63.3735   81.4641   12.6634 C.3     1  UNL1        0.1043
     20 C          62.3440   80.8072   13.5344 C.3     1  UNL1        0.1544
     21 O          61.9862   81.4124   14.8594 O.3     1  UNL1       -0.3805
     22 H          62.7525   81.3684   15.4525 H       1  UNL1        0.2105
     23 C          66.0270   91.7585   13.9829 C.3     1  UNL1        0.0189
     24 C          67.3702   91.5661   14.6223 C.3     1  UNL1        0.0015
     25 C          66.2389   92.1506   15.4151 C.3     1  UNL1        0.0015
     26 S          63.8051   89.7428   13.9640 S.O2    1  UNL1        0.0634
     27 O          62.8379   90.7358   14.5371 O.2     1  UNL1       -0.1528
     28 O          64.6033   88.6814   13.7218 O.2     1  UNL1       -0.1528
     29 C          63.5920   88.8503   15.1505 C.ar    1  UNL1        0.1223
     30 C          63.9025   87.3861   15.0531 C.ar    1  UNL1        0.0222
     31 C          63.6894   86.4936   16.2397 C.ar    1  UNL1        0.0310
     32 C          63.1657   87.0653   17.5238 C.ar    1  UNL1        0.1402
     33 F          62.9525   86.1728   18.7103 F       1  UNL1       -0.2042
     34 C          62.8551   88.5296   17.6212 C.ar    1  UNL1        0.0310
     35 C          63.0683   89.4221   16.4347 C.ar    1  UNL1        0.0222
@<TRIPOS>BOND
     1    11    12    2
     2    12    10    1
     3    10     7    1
     4     1     7    1
     5     1     2    1
     6     2     3    1
     7     3     4    1
     8     4     5    1
     9     5    23    1
    10    23    24    1
    11    24    25    1
    12     5     6    1
    13     6    26    1
    14    26    27    2
    15    26    28    2
    16    26    29    1
    17    29    30   ar
    18    30    31   ar
    19    31    32   ar
    20    32    33    1
    21    32    34   ar
    22    34    35   ar
    23     7     8    1
    24     8     9    1
    25    12    13   am
    26    13    14    1
    27    14    15    1
    28    15    16    1
    29    16    19    1
    30    19    20    1
    31    20    21    1
    32    16    17    1
    33    17    18    1
    34     9     7    1
    35    18    13    1
    36     6     1    1
    37    35    29   ar
    38    25    23    1
    39    21    22    1
@<TRIPOS>MOLECULE
*****
 35 39 0 0 0
SMALL
GASTEIGER

@<TRIPOS>ATOM
      1 C          60.6264   88.8366    9.8406 C.3     1  UNL1        0.1095
      2 C          59.8530   89.8358    9.0323 C.3     1  UNL1        0.1598
      3 O          59.4400   89.5064    7.6284 O.3     1  UNL1       -0.3508
      4 C          59.8004   88.1777    7.0328 C.3     1  UNL1        0.1598
      5 C          60.5737   87.1785    7.8411 C.3     1  UNL1        0.1091
      6 N          60.9868   87.5079    9.2450 N.3     1  UNL1       -0.1533
      7 C          61.0394   89.1660   11.2445 C.3     1  UNL1        0.0261
      8 C          60.9358   89.4707   12.7096 C.3     1  UNL1        0.0020
      9 C          59.6949   89.2093   11.9082 C.3     1  UNL1        0.0020
     10 C          62.5273   89.2371   11.0683 C.3     1  UNL1        0.0867
     11 O          62.9704   91.4235    9.7367 O.2     1  UNL1       -0.2749
     12 C          63.2054   90.5696   10.9473 C.2     1  UNL1        0.2258
     13 N          64.1184   91.0482   12.0369 N.am    1  UNL1       -0.2767
     14 C          64.3534   90.1943   13.2475 C.3     1  UNL1        0.1107
     15 C          65.2664   90.6730   14.3372 C.3     1  UNL1        0.0940
     16 N          65.9444   92.0054   14.2163 N.3     1  UNL1       -0.2677
     17 C          65.7095   92.8594   13.0057 C.3     1  UNL1        0.0940
     18 C          64.7964   92.3808   11.9159 C.3     1  UNL1        0.1107
     19 C          66.8574   92.4841   15.3059 C.3     1  UNL1        0.1043
     20 C          68.3358   92.5627   15.0651 C.3     1  UNL1        0.1544
     21 O          68.9257   91.9675   13.8209 O.3     1  UNL1       -0.3805
     22 H          68.8153   91.0040   13.8396 H       1  UNL1        0.2105
     23 C          60.9341   85.8498    7.2455 C.3     1  UNL1        0.0189
     24 C          60.5188   84.5215    6.6859 C.3     1  UNL1        0.0015
     25 C          61.9735   84.8768    6.7736 C.3     1  UNL1        0.0015
     26 S          61.7602   86.5086   10.0533 S.O2    1  UNL1        0.0634
     27 O          62.9719   86.7612    9.2061 O.2     1  UNL1       -0.1528
     28 O          60.8704   86.0705   10.9692 O.2     1  UNL1       -0.1528
     29 C          62.5336   85.5094   10.8616 C.ar    1  UNL1        0.1223
     30 C          62.6440   85.6719   12.3487 C.ar    1  UNL1        0.0222
     31 C          63.4175   84.6726   13.1569 C.ar    1  UNL1        0.0310
     32 C          64.0804   83.5109   12.4781 C.ar    1  UNL1        0.1402
     33 F          64.8538   82.5116   13.2864 F       1  UNL1       -0.2042
     34 C          63.9700   83.3484   10.9910 C.ar    1  UNL1        0.0310
     35 C          63.1966   84.3476   10.1828 C.ar    1  UNL1        0.0222
@<TRIPOS>BOND
     1    11    12    2
     2    12    10    1
     3    10     7    1
     4     1     7    1
     5     1     2    1
     6     2     3    1
     7     3     4    1
     8     4     5    1
     9     5    23    1
    10    23    24    1
    11    24    25    1
    12     5     6    1
    13     6    26    1
    14    26    27    2
    15    26    28    2
    16    26    29    1
    17    29    30   ar
    18    30    31   ar
    19    31    32   ar
    20    32    33    1
    21    32    34   ar
    22    34    35   ar
    23     7     8    1
    24     8     9    1
    25    12    13   am
    26    13    14    1
    27    14    15    1
    28    15    16    1
    29    16    19    1
    30    19    20    1
    31    20    21    1
    32    16    17    1
    33    17    18    1
    34     9     7    1
    35    18    13    1
    36     6     1    1
    37    35    29   ar
    38    25    23    1
    39    21    22    1
@<TRIPOS>MOLECULE
*****
 35 39 0 0 0
SMALL
GASTEIGER

@<TRIPOS>ATOM
      1 C          60.6008   88.7877    9.7718 C.3     1  UNL1        0.1095
      2 C          59.8209   89.7712    8.9507 C.3     1  UNL1        0.1598
      3 O          59.4226   89.4265    7.5462 O.3     1  UNL1       -0.3508
      4 C          59.8041   88.0983    6.9630 C.3     1  UNL1        0.1598
      5 C          60.5839   87.1147    7.7842 C.3     1  UNL1        0.1091
      6 N          60.9823   87.4594    9.1886 N.3     1  UNL1       -0.1533
      7 C          60.9992   89.1323   11.1763 C.3     1  UNL1        0.0261
      8 C          60.8812   89.4419   12.6393 C.3     1  UNL1        0.0020
      9 C          59.6505   89.1510   11.8326 C.3     1  UNL1        0.0020
     10 C          62.4863   89.2334   11.0078 C.3     1  UNL1        0.0867
     11 O          63.3973   89.0356   13.4329 O.2     1  UNL1       -0.2749
     12 C          63.3331   89.7672   12.1250 C.2     1  UNL1        0.2258
     13 N          64.1157   91.0325   11.9342 N.am    1  UNL1       -0.2767
     14 C          64.0515   91.7641   10.6263 C.3     1  UNL1        0.1107
     15 C          64.8342   93.0294   10.4355 C.3     1  UNL1        0.0940
     16 N          65.6810   93.5632   11.5526 N.3     1  UNL1       -0.2677
     17 C          65.7452   92.8317   12.8605 C.3     1  UNL1        0.0940
     18 C          64.9625   91.5663   13.0514 C.3     1  UNL1        0.1107
     19 C          66.4636   94.8286   11.3618 C.3     1  UNL1        0.1043
     20 C          67.1367   95.1035   10.0499 C.3     1  UNL1        0.1544
     21 O          68.3632   94.3328    9.6601 O.3     1  UNL1       -0.3805
     22 H          69.0892   94.5532   10.2644 H       1  UNL1        0.2105
     23 C          60.9654   85.7864    7.2009 C.3     1  UNL1        0.0189
     24 C          60.5716   84.4443    6.6590 C.3     1  UNL1        0.0015
     25 C          62.0199   84.8279    6.7327 C.3     1  UNL1        0.0015
     26 S          61.7622   86.4758   10.0099 S.O2    1  UNL1        0.0634
     27 O          62.9878   86.7683    9.1962 O.2     1  UNL1       -0.1528
     28 O          60.8616   86.0062   10.8992 O.2     1  UNL1       -0.1528
     29 C          62.5420   85.4923   10.8311 C.ar    1  UNL1        0.1223
     30 C          63.2026   84.3195   10.1691 C.ar    1  UNL1        0.0222
     31 C          63.9825   83.3359   10.9903 C.ar    1  UNL1        0.0310
     32 C          64.1018   83.5252   12.4735 C.ar    1  UNL1        0.1402
     33 F          64.8817   82.5417   13.2947 F       1  UNL1       -0.2042
     34 C          63.4413   84.6980   13.1355 C.ar    1  UNL1        0.0310
     35 C          62.6614   85.6815   12.3143 C.ar    1  UNL1        0.0222
@<TRIPOS>BOND
     1    11    12    2
     2    12    10    1
     3    10     7    1
     4     1     7    1
     5     1     2    1
     6     2     3    1
     7     3     4    1
     8     4     5    1
     9     5    23    1
    10    23    24    1
    11    24    25    1
    12     5     6    1
    13     6    26    1
    14    26    27    2
    15    26    28    2
    16    26    29    1
    17    29    30   ar
    18    30    31   ar
    19    31    32   ar
    20    32    33    1
    21    32    34   ar
    22    34    35   ar
    23     7     8    1
    24     8     9    1
    25    12    13   am
    26    13    14    1
    27    14    15    1
    28    15    16    1
    29    16    19    1
    30    19    20    1
    31    20    21    1
    32    16    17    1
    33    17    18    1
    34     9     7    1
    35    18    13    1
    36     6     1    1
    37    35    29   ar
    38    25    23    1
    39    21    22    1
@<TRIPOS>MOLECULE
*****
 35 39 0 0 0
SMALL
GASTEIGER

@<TRIPOS>ATOM
      1 C          63.3864   88.4280   13.1135 C.3     1  UNL1        0.1095
      2 C          64.2429   88.3274   14.3407 C.3     1  UNL1        0.1598
      3 O          64.7152   86.9860   14.8178 O.3     1  UNL1       -0.3508
      4 C          64.3310   85.7453   14.0675 C.3     1  UNL1        0.1598
      5 C          63.4746   85.8459   12.8402 C.3     1  UNL1        0.1091
      6 N          63.0023   87.1872   12.3632 N.3     1  UNL1       -0.1533
      7 C          62.9141   89.7694   12.6364 C.3     1  UNL1        0.0261
      8 C          61.9875   90.9016   12.3050 C.3     1  UNL1        0.0020
      9 C          61.4420   89.6327   12.8903 C.3     1  UNL1        0.0020
     10 C          64.2221   90.3719   12.2168 C.3     1  UNL1        0.0867
     11 O          64.5750   91.7484   14.3918 O.2     1  UNL1       -0.2749
     12 C          64.7389   91.5986   12.9083 C.2     1  UNL1        0.2258
     13 N          65.4197   92.6754   12.1165 N.am    1  UNL1       -0.2767
     14 C          65.5836   92.5256   10.6330 C.3     1  UNL1        0.1107
     15 C          66.2643   93.6024    9.8411 C.3     1  UNL1        0.0940
     16 N          66.7812   94.8289   10.5326 N.3     1  UNL1       -0.2677
     17 C          66.6173   94.9788   12.0161 C.3     1  UNL1        0.0940
     18 C          65.9365   93.9020   12.8081 C.3     1  UNL1        0.1107
     19 C          67.4619   95.9058    9.7408 C.3     1  UNL1        0.1043
     20 C          67.2801   95.9717    8.2533 C.3     1  UNL1        0.1544
     21 O          65.9277   96.2670    7.6755 O.3     1  UNL1       -0.3805
     22 H          65.3220   95.5377    7.8809 H       1  UNL1        0.2105
     23 C          63.0904   84.6051   12.0899 C.3     1  UNL1        0.0189
     24 C          62.3429   83.3064   12.0234 C.3     1  UNL1        0.0015
     25 C          63.1726   83.7548   10.8570 C.3     1  UNL1        0.0015
     26 S          62.1458   87.2879   11.1358 S.O2    1  UNL1        0.0634
     27 O          61.0187   86.6216   11.8678 O.2     1  UNL1       -0.1528
     28 O          62.9435   87.8917   10.2294 O.2     1  UNL1       -0.1528
     29 C          61.2893   87.3885    9.9086 C.ar    1  UNL1        0.1223
     30 C          60.8044   88.7285    9.4401 C.ar    1  UNL1        0.0222
     31 C          59.9478   88.8291    8.2128 C.ar    1  UNL1        0.0310
     32 C          59.5762   87.5897    7.4540 C.ar    1  UNL1        0.1402
     33 F          58.7197   87.6903    6.2267 F       1  UNL1       -0.2042
     34 C          60.0611   86.2498    7.9224 C.ar    1  UNL1        0.0310
     35 C          60.9176   86.1491    9.1496 C.ar    1  UNL1        0.0222
@<TRIPOS>BOND
     1    11    12    2
     2    12    10    1
     3    10     7    1
     4     1     7    1
     5     1     2    1
     6     2     3    1
     7     3     4    1
     8     4     5    1
     9     5    23    1
    10    23    24    1
    11    24    25    1
    12     5     6    1
    13     6    26    1
    14    26    27    2
    15    26    28    2
    16    26    29    1
    17    29    30   ar
    18    30    31   ar
    19    31    32   ar
    20    32    33    1
    21    32    34   ar
    22    34    35   ar
    23     7     8    1
    24     8     9    1
    25    12    13   am
    26    13    14    1
    27    14    15    1
    28    15    16    1
    29    16    19    1
    30    19    20    1
    31    20    21    1
    32    16    17    1
    33    17    18    1
    34     9     7    1
    35    18    13    1
    36     6     1    1
    37    35    29   ar
    38    25    23    1
    39    21    22    1
@<TRIPOS>MOLECULE
*****
 35 39 0 0 0
SMALL
GASTEIGER

@<TRIPOS>ATOM
      1 C          61.0510   95.2600   -1.5503 C.3     1  UNL1        0.1095
      2 C          61.4667   96.0522   -2.7543 C.3     1  UNL1        0.1598
      3 O          62.9178   96.3467   -2.9938 O.3     1  UNL1       -0.3508
      4 C          63.9533   95.8491   -2.0294 C.3     1  UNL1        0.1598
      5 C          63.5376   95.0569   -0.8254 C.3     1  UNL1        0.1091
      6 N          62.0865   94.7623   -0.5859 N.3     1  UNL1       -0.1533
      7 C          59.5998   94.9654   -1.3108 C.3     1  UNL1        0.0261
      8 C          58.2116   95.0792   -0.7541 C.3     1  UNL1        0.0020
      9 C          59.2771   96.0391   -0.3142 C.3     1  UNL1        0.0020
     10 C          59.4186   93.7895   -2.2242 C.3     1  UNL1        0.0867
     11 O          58.1678   92.2690   -0.5290 O.2     1  UNL1       -0.2749
     12 C          58.3603   92.7678   -1.9304 C.2     1  UNL1        0.2258
     13 N          57.4945   92.2450   -3.0381 N.am    1  UNL1       -0.2767
     14 C          57.6870   92.7438   -4.4396 C.3     1  UNL1        0.1107
     15 C          56.8212   92.2209   -5.5473 C.3     1  UNL1        0.0940
     16 N          55.7630   91.1994   -5.2537 N.3     1  UNL1       -0.2677
     17 C          55.5704   90.7005   -3.8522 C.3     1  UNL1        0.0940
     18 C          56.4362   91.2233   -2.7444 C.3     1  UNL1        0.1107
     19 C          54.8971   90.6765   -6.3614 C.3     1  UNL1        0.1043
     20 C          53.7906   89.7109   -6.0563 C.3     1  UNL1        0.1544
     21 O          54.1035   88.2644   -5.8119 O.3     1  UNL1       -0.3805
     22 H          54.4468   87.8657   -6.6269 H       1  UNL1        0.2105
     23 C          64.5730   94.5592    0.1391 C.3     1  UNL1        0.0189
     24 C          65.5211   93.4872    0.5884 C.3     1  UNL1        0.0015
     25 C          65.4184   94.7693    1.3602 C.3     1  UNL1        0.0015
     26 S          61.6707   93.9701    0.6182 S.O2    1  UNL1        0.0634
     27 O          61.7113   92.7112   -0.1963 O.2     1  UNL1       -0.1528
     28 O          61.5448   94.8970    1.5915 O.2     1  UNL1       -0.1528
     29 C          61.2550   93.1779    1.8221 C.ar    1  UNL1        0.1223
     30 C          59.8472   93.2708    2.3315 C.ar    1  UNL1        0.0222
     31 C          59.4315   92.4785    3.5355 C.ar    1  UNL1        0.0310
     32 C          60.4235   91.5934    4.2300 C.ar    1  UNL1        0.1402
     33 F          60.0078   90.8012    5.4340 F       1  UNL1       -0.2042
     34 C          61.8313   91.5005    3.7206 C.ar    1  UNL1        0.0310
     35 C          62.2470   92.2927    2.5167 C.ar    1  UNL1        0.0222
@<TRIPOS>BOND
     1    11    12    2
     2    12    10    1
     3    10     7    1
     4     1     7    1
     5     1     2    1
     6     2     3    1
     7     3     4    1
     8     4     5    1
     9     5    23    1
    10    23    24    1
    11    24    25    1
    12     5     6    1
    13     6    26    1
    14    26    27    2
    15    26    28    2
    16    26    29    1
    17    29    30   ar
    18    30    31   ar
    19    31    32   ar
    20    32    33    1
    21    32    34   ar
    22    34    35   ar
    23     7     8    1
    24     8     9    1
    25    12    13   am
    26    13    14    1
    27    14    15    1
    28    15    16    1
    29    16    19    1
    30    19    20    1
    31    20    21    1
    32    16    17    1
    33    17    18    1
    34     9     7    1
    35    18    13    1
    36     6     1    1
    37    35    29   ar
    38    25    23    1
    39    21    22    1
@<TRIPOS>MOLECULE
*****
 35 39 0 0 0
SMALL
GASTEIGER

@<TRIPOS>ATOM
      1 C          61.6480   87.2831   10.1618 C.3     1  UNL1        0.1095
      2 C          61.3490   87.3850    8.6955 C.3     1  UNL1        0.1598
      3 O          61.7823   86.2922    7.7640 O.3     1  UNL1       -0.3508
      4 C          62.5148   85.0974    8.2988 C.3     1  UNL1        0.1598
      5 C          62.8138   84.9954    9.7651 C.3     1  UNL1        0.1091
      6 N          62.3805   86.0883   10.6966 N.3     1  UNL1       -0.1533
      7 C          61.2146   88.3760   11.0935 C.3     1  UNL1        0.0261
      8 C          60.3165   89.2986   11.8629 C.3     1  UNL1        0.0020
      9 C          59.7256   88.2654   10.9499 C.3     1  UNL1        0.0020
     10 C          62.5532   88.8660   11.5605 C.3     1  UNL1        0.0867
     11 O          62.7489   90.6113    9.6459 O.2     1  UNL1       -0.2749
     12 C          63.1073   90.1546   11.0290 C.2     1  UNL1        0.2258
     13 N          64.0198   90.9866   11.8806 N.am    1  UNL1       -0.2767
     14 C          64.3782   90.5299   13.2637 C.3     1  UNL1        0.1107
     15 C          65.2907   91.3619   14.1153 C.3     1  UNL1        0.0940
     16 N          65.8448   92.6505   13.5838 N.3     1  UNL1       -0.2677
     17 C          65.4864   93.1072   12.2007 C.3     1  UNL1        0.0940
     18 C          64.5739   92.2752   11.3490 C.3     1  UNL1        0.1107
     19 C          66.7573   93.4825   14.4354 C.3     1  UNL1        0.1043
     20 C          68.0452   92.9038   14.9417 C.3     1  UNL1        0.1544
     21 O          68.9364   92.1318   14.0144 O.3     1  UNL1       -0.3805
     22 H          68.4887   91.3161   13.7402 H       1  UNL1        0.2105
     23 C          63.5463   83.8006   10.2999 C.3     1  UNL1        0.0189
     24 C          64.7329   83.2124   11.0039 C.3     1  UNL1        0.0015
     25 C          63.6282   82.3195   10.5220 C.3     1  UNL1        0.0015
     26 S          62.6795   85.9864   12.1630 S.O2    1  UNL1        0.0634
     27 O          61.4236   85.1913   12.3639 O.2     1  UNL1       -0.1528
     28 O          63.8414   86.6585   12.3069 O.2     1  UNL1       -0.1528
     29 C          62.9785   85.8844   13.6293 C.ar    1  UNL1        0.1223
     30 C          63.8516   86.9099   14.2898 C.ar    1  UNL1        0.0222
     31 C          64.1506   86.8079   15.7562 C.ar    1  UNL1        0.0310
     32 C          63.5765   85.6805   16.5621 C.ar    1  UNL1        0.1402
     33 F          63.8755   85.5786   18.0284 F       1  UNL1       -0.2042
     34 C          62.7035   84.6551   15.9016 C.ar    1  UNL1        0.0310
     35 C          62.4045   84.7570   14.4353 C.ar    1  UNL1        0.0222
@<TRIPOS>BOND
     1    11    12    2
     2    12    10    1
     3    10     7    1
     4     1     7    1
     5     1     2    1
     6     2     3    1
     7     3     4    1
     8     4     5    1
     9     5    23    1
    10    23    24    1
    11    24    25    1
    12     5     6    1
    13     6    26    1
    14    26    27    2
    15    26    28    2
    16    26    29    1
    17    29    30   ar
    18    30    31   ar
    19    31    32   ar
    20    32    33    1
    21    32    34   ar
    22    34    35   ar
    23     7     8    1
    24     8     9    1
    25    12    13   am
    26    13    14    1
    27    14    15    1
    28    15    16    1
    29    16    19    1
    30    19    20    1
    31    20    21    1
    32    16    17    1
    33    17    18    1
    34     9     7    1
    35    18    13    1
    36     6     1    1
    37    35    29   ar
    38    25    23    1
    39    21    22    1
@<TRIPOS>MOLECULE
*****
 35 39 0 0 0
SMALL
GASTEIGER

@<TRIPOS>ATOM
      1 C          61.8101   89.1835   11.4109 C.3     1  UNL1        0.1095
      2 C          61.2509   90.5619   11.2179 C.3     1  UNL1        0.1598
      3 O          60.2544   90.8210   10.1272 O.3     1  UNL1       -0.3508
      4 C          59.8171   89.7017    9.2294 C.3     1  UNL1        0.1598
      5 C          60.3763   88.3233    9.4223 C.3     1  UNL1        0.1091
      6 N          61.3728   88.0642   10.5131 N.3     1  UNL1       -0.1533
      7 C          62.8066   88.9243   12.5017 C.3     1  UNL1        0.0261
      8 C          63.8629   88.2313   13.3104 C.3     1  UNL1        0.0020
      9 C          63.3246   87.5849   12.0684 C.3     1  UNL1        0.0020
     10 C          62.6347   90.1737   13.3137 C.3     1  UNL1        0.0867
     11 O          64.2176   90.7760   15.2839 O.2     1  UNL1       -0.2749
     12 C          63.8385   90.8991   13.8378 C.2     1  UNL1        0.2258
     13 N          64.6633   91.7475   12.9159 N.am    1  UNL1       -0.2767
     14 C          64.2842   91.8706   11.4699 C.3     1  UNL1        0.1107
     15 C          65.1090   92.7191   10.5479 C.3     1  UNL1        0.0940
     16 N          66.3127   93.4444   11.0721 N.3     1  UNL1       -0.2677
     17 C          66.6918   93.3214   12.5181 C.3     1  UNL1        0.0940
     18 C          65.8671   92.4729   13.4401 C.3     1  UNL1        0.1107
     19 C          67.1375   94.2929   10.1501 C.3     1  UNL1        0.1043
     20 C          68.1651   93.6555    9.2626 C.3     1  UNL1        0.1544
     21 O          69.2777   92.8481    9.8629 O.3     1  UNL1       -0.3805
     22 H          69.8525   93.4285   10.3860 H       1  UNL1        0.2105
     23 C          59.9390   87.2041    8.5245 C.3     1  UNL1        0.0189
     24 C          60.2558   85.9544    7.7578 C.3     1  UNL1        0.0015
     25 C          58.8648   86.5152    7.7363 C.3     1  UNL1        0.0015
     26 S          61.9321   86.6858   10.7061 S.O2    1  UNL1        0.0634
     27 O          62.9022   86.9227    9.5869 O.2     1  UNL1       -0.1528
     28 O          61.2067   86.1787   11.7255 O.2     1  UNL1       -0.1528
     29 C          62.4913   85.3074   10.8990 C.ar    1  UNL1        0.1223
     30 C          62.3150   84.6035   12.2118 C.ar    1  UNL1        0.0222
     31 C          62.8744   83.2250   12.4047 C.ar    1  UNL1        0.0310
     32 C          63.6099   82.5506   11.2849 C.ar    1  UNL1        0.1402
     33 F          64.1692   81.1723   11.4779 F       1  UNL1       -0.2042
     34 C          63.7862   83.2546    9.9722 C.ar    1  UNL1        0.0310
     35 C          63.2270   84.6329    9.7792 C.ar    1  UNL1        0.0222
@<TRIPOS>BOND
     1    11    12    2
     2    12    10    1
     3    10     7    1
     4     1     7    1
     5     1     2    1
     6     2     3    1
     7     3     4    1
     8     4     5    1
     9     5    23    1
    10    23    24    1
    11    24    25    1
    12     5     6    1
    13     6    26    1
    14    26    27    2
    15    26    28    2
    16    26    29    1
    17    29    30   ar
    18    30    31   ar
    19    31    32   ar
    20    32    33    1
    21    32    34   ar
    22    34    35   ar
    23     7     8    1
    24     8     9    1
    25    12    13   am
    26    13    14    1
    27    14    15    1
    28    15    16    1
    29    16    19    1
    30    19    20    1
    31    20    21    1
    32    16    17    1
    33    17    18    1
    34     9     7    1
    35    18    13    1
    36     6     1    1
    37    35    29   ar
    38    25    23    1
    39    21    22    1
@<TRIPOS>MOLECULE
*****
 35 39 0 0 0
SMALL
GASTEIGER

@<TRIPOS>ATOM
      1 C          61.6210   87.2425    9.9465 C.3     1  UNL1        0.1095
      2 C          61.2843   87.3239    8.4871 C.3     1  UNL1        0.1598
      3 O          61.6607   86.2008    7.5669 O.3     1  UNL1       -0.3508
      4 C          62.3738   84.9963    8.1060 C.3     1  UNL1        0.1598
      5 C          62.7105   84.9149    9.5654 C.3     1  UNL1        0.1091
      6 N          62.3341   86.0380   10.4857 N.3     1  UNL1       -0.1533
      7 C          61.2446   88.3656   10.8669 C.3     1  UNL1        0.0261
      8 C          60.4441   89.1895   11.8315 C.3     1  UNL1        0.0020
      9 C          59.8926   87.8940   11.3141 C.3     1  UNL1        0.0020
     10 C          62.4658   89.2272   10.7393 C.3     1  UNL1        0.0867
     11 O          62.7484   89.3401   13.3195 O.2     1  UNL1       -0.2749
     12 C          63.0508   89.8837   11.9546 C.2     1  UNL1        0.2258
     13 N          63.9381   91.0838   11.8049 N.am    1  UNL1       -0.2767
     14 C          64.2405   91.6274   10.4400 C.3     1  UNL1        0.1107
     15 C          65.1279   92.8275   10.2903 C.3     1  UNL1        0.0940
     16 N          65.7128   93.4840   11.5055 N.3     1  UNL1       -0.2677
     17 C          65.4105   92.9404   12.8705 C.3     1  UNL1        0.0940
     18 C          64.5231   91.7403   13.0202 C.3     1  UNL1        0.1107
     19 C          66.6002   94.6841   11.3559 C.3     1  UNL1        0.1043
     20 C          67.2313   94.9895   10.0299 C.3     1  UNL1        0.1544
     21 O          68.4672   94.2557    9.6007 O.3     1  UNL1       -0.3805
     22 H          69.2027   94.4897   10.1883 H       1  UNL1        0.2105
     23 C          63.4236   83.7104   10.1046 C.3     1  UNL1        0.0189
     24 C          63.3814   82.3461   10.7264 C.3     1  UNL1        0.0015
     25 C          64.7009   82.9886   10.4166 C.3     1  UNL1        0.0015
     26 S          62.6708   85.9567   11.9452 S.O2    1  UNL1        0.0634
     27 O          61.3769   85.2433   12.2039 O.2     1  UNL1       -0.1528
     28 O          63.8740   86.5619   12.0371 O.2     1  UNL1       -0.1528
     29 C          63.0074   85.8753   13.4046 C.ar    1  UNL1        0.1223
     30 C          63.9398   86.8786   14.0163 C.ar    1  UNL1        0.0222
     31 C          64.2764   86.7971   15.4759 C.ar    1  UNL1        0.0310
     32 C          63.6807   85.7125   16.3236 C.ar    1  UNL1        0.1402
     33 F          64.0174   85.6311   17.7830 F       1  UNL1       -0.2042
     34 C          62.7484   84.7092   15.7119 C.ar    1  UNL1        0.0310
     35 C          62.4117   84.7906   14.2524 C.ar    1  UNL1        0.0222
@<TRIPOS>BOND
     1    11    12    2
     2    12    10    1
     3    10     7    1
     4     1     7    1
     5     1     2    1
     6     2     3    1
     7     3     4    1
     8     4     5    1
     9     5    23    1
    10    23    24    1
    11    24    25    1
    12     5     6    1
    13     6    26    1
    14    26    27    2
    15    26    28    2
    16    26    29    1
    17    29    30   ar
    18    30    31   ar
    19    31    32   ar
    20    32    33    1
    21    32    34   ar
    22    34    35   ar
    23     7     8    1
    24     8     9    1
    25    12    13   am
    26    13    14    1
    27    14    15    1
    28    15    16    1
    29    16    19    1
    30    19    20    1
    31    20    21    1
    32    16    17    1
    33    17    18    1
    34     9     7    1
    35    18    13    1
    36     6     1    1
    37    35    29   ar
    38    25    23    1
    39    21    22    1
@<TRIPOS>MOLECULE
*****
 35 39 0 0 0
SMALL
GASTEIGER

@<TRIPOS>ATOM
      1 C          61.0712   95.3659   -1.2644 C.3     1  UNL1        0.1095
      2 C          61.4480   96.1809   -2.4660 C.3     1  UNL1        0.1598
      3 O          62.8919   96.3477   -2.8363 O.3     1  UNL1       -0.3508
      4 C          63.9591   95.6995   -2.0051 C.3     1  UNL1        0.1598
      5 C          63.5823   94.8845   -0.8035 C.3     1  UNL1        0.1091
      6 N          62.1384   94.7177   -0.4332 N.3     1  UNL1       -0.1533
      7 C          59.6272   95.1991   -0.8940 C.3     1  UNL1        0.0261
      8 C          58.3098   95.4332   -0.2161 C.3     1  UNL1        0.0020
      9 C          59.4902   96.2956    0.1204 C.3     1  UNL1        0.0020
     10 C          59.2629   94.0447   -1.7798 C.3     1  UNL1        0.0867
     11 O          59.6774   94.0968   -4.3441 O.2     1  UNL1       -0.2749
     12 C          58.7632   94.2959   -3.1717 C.2     1  UNL1        0.2258
     13 N          57.3494   94.7463   -3.3910 N.am    1  UNL1       -0.2767
     14 C          56.4352   94.9455   -2.2186 C.3     1  UNL1        0.1107
     15 C          55.0213   95.3959   -2.4381 C.3     1  UNL1        0.0940
     16 N          54.5216   95.6471   -3.8298 N.3     1  UNL1       -0.2677
     17 C          55.4357   95.4479   -5.0023 C.3     1  UNL1        0.0940
     18 C          56.8496   94.9975   -4.7829 C.3     1  UNL1        0.1107
     19 C          53.1077   96.0974   -4.0492 C.3     1  UNL1        0.1043
     20 C          52.1839   96.2652   -2.8794 C.3     1  UNL1        0.1544
     21 O          51.5102   95.0675   -2.2780 O.3     1  UNL1       -0.3805
     22 H          50.8907   94.6881   -2.9209 H       1  UNL1        0.2105
     23 C          64.6495   94.2363    0.0277 C.3     1  UNL1        0.0189
     24 C          65.4060   93.0099    0.4442 C.3     1  UNL1        0.0015
     25 C          65.7414   94.3401    1.0509 C.3     1  UNL1        0.0015
     26 S          61.7616   93.9027    0.7684 S.O2    1  UNL1        0.0634
     27 O          61.9422   95.1082    1.6426 O.2     1  UNL1       -0.1528
     28 O          61.5219   92.6726    0.2667 O.2     1  UNL1       -0.1528
     29 C          61.3848   93.0878    1.9700 C.ar    1  UNL1        0.1223
     30 C          62.3933   92.1766    2.6046 C.ar    1  UNL1        0.0222
     31 C          62.0165   91.3616    3.8062 C.ar    1  UNL1        0.0310
     32 C          60.6312   91.4579    4.3733 C.ar    1  UNL1        0.1402
     33 F          60.2544   90.6430    5.5749 F       1  UNL1       -0.2042
     34 C          59.6227   92.3691    3.7388 C.ar    1  UNL1        0.0310
     35 C          59.9995   93.1841    2.5372 C.ar    1  UNL1        0.0222
@<TRIPOS>BOND
     1    11    12    2
     2    12    10    1
     3    10     7    1
     4     1     7    1
     5     1     2    1
     6     2     3    1
     7     3     4    1
     8     4     5    1
     9     5    23    1
    10    23    24    1
    11    24    25    1
    12     5     6    1
    13     6    26    1
    14    26    27    2
    15    26    28    2
    16    26    29    1
    17    29    30   ar
    18    30    31   ar
    19    31    32   ar
    20    32    33    1
    21    32    34   ar
    22    34    35   ar
    23     7     8    1
    24     8     9    1
    25    12    13   am
    26    13    14    1
    27    14    15    1
    28    15    16    1
    29    16    19    1
    30    19    20    1
    31    20    21    1
    32    16    17    1
    33    17    18    1
    34     9     7    1
    35    18    13    1
    36     6     1    1
    37    35    29   ar
    38    25    23    1
    39    21    22    1
