@<TRIPOS>MOLECULE
*****
 40 45 0 0 0
SMALL
GASTEIGER

@<TRIPOS>ATOM
      1 C          62.9020   85.2907   13.1638 C.ar    1  UNL1        0.2389
      2 N          62.1319   85.8946   12.0271 N.ar    1  UNL1       -0.1956
      3 C          62.2329   87.3654   11.7503 C.ar    1  UNL1        0.1424
      4 C          63.1041   88.2323   12.6102 C.ar    1  UNL1        0.0785
      5 S          63.3999   89.7024   12.5791 S.2     1  UNL1       -0.0856
      6 C          64.3530   90.0073   13.6966 C.ar    1  UNL1        0.0251
      7 C          64.6461   88.7254   14.4184 C.ar    1  UNL1        0.0233
      8 C          63.8743   87.6284   13.7469 C.ar    1  UNL1        0.0933
      9 N          63.7733   86.1576   14.0237 N.ar    1  UNL1       -0.2105
     10 C          62.3873   83.9185   16.0796 C.3     1  UNL1        0.0723
     11 C          62.5644   83.1892   14.7809 C.ar    1  UNL1        0.1268
     12 N          62.5360   81.7011   14.5943 N.ar    1  UNL1       -0.2305
     13 C          62.7551   81.4121   13.1388 C.ar    1  UNL1        0.0987
     14 C          62.8266   80.1258   12.3706 C.ar    1  UNL1        0.0206
     15 C          63.0619   80.1490   10.8894 C.ar    1  UNL1        0.0016
     16 C          63.2257   81.4585   10.1763 C.ar    1  UNL1        0.0016
     17 C          63.1541   82.7448   10.9445 C.ar    1  UNL1        0.0192
     18 C          62.9189   82.7216   12.4258 C.ar    1  UNL1        0.0854
     19 N          62.8010   83.8199   13.4406 N.ar    1  UNL1       -0.2632
     20 N          61.4627   87.9692   10.6136 N.pl3   1  UNL1       -0.2876
     21 C          61.2668   87.1938    9.3447 C.3     1  UNL1        0.1243
     22 C          60.4966   87.7976    8.2079 C.3     1  UNL1        0.1636
     23 O          59.9222   89.1770    8.3402 O.3     1  UNL1       -0.3501
     24 C          60.1182   89.9525    9.6091 C.3     1  UNL1        0.1636
     25 C          60.8884   89.3486   10.7458 C.3     1  UNL1        0.1243
     26 C          64.9143   91.3568   14.0333 C.3     1  UNL1        0.1058
     27 N          65.2542   92.3226   12.9370 N.3     1  UNL1       -0.2661
     28 C          64.7451   92.0872   11.5458 C.3     1  UNL1        0.0899
     29 C          65.0848   93.0529   10.4494 C.3     1  UNL1        0.0900
     30 N          65.9337   94.2539   10.7442 N.3     1  UNL1       -0.2655
     31 C          66.4428   94.4893   12.1354 C.3     1  UNL1        0.0900
     32 C          66.1030   93.5236   13.2318 C.3     1  UNL1        0.0899
     33 C          66.2735   95.2196    9.6480 C.3     1  UNL1        0.1145
     34 C          65.2749   96.1948   10.1974 C.3     1  UNL1        0.0253
     35 C          67.2721   94.2445    9.0984 C.3     1  UNL1        0.0253
     36 C          66.6134   96.1854    8.5516 C.2     1  UNL1        0.2321
     37 N          67.9627   96.8396    8.5201 N.am    1  UNL1       -0.3278
     38 O          65.6037   96.4970    7.4869 O.2     1  UNL1       -0.2740
     39 H          68.6254   96.6351    9.2189 H       1  UNL1        0.1450
     40 H          68.1858   97.4735    7.8006 H       1  UNL1        0.1450
@<TRIPOS>BOND
     1    10    11    1
     2    11    12   ar
     3    12    13   ar
     4    13    14   ar
     5    14    15   ar
     6    15    16   ar
     7    16    17   ar
     8    17    18   ar
     9    18    19   ar
    10    19     1    1
    11     1     2   ar
    12     2     3   ar
    13     3    20    1
    14    20    21    1
    15    21    22    1
    16    22    23    1
    17    23    24    1
    18    24    25    1
    19     3     4   ar
    20     4     5   ar
    21     5     6   ar
    22     6    26    1
    23    26    27    1
    24    27    28    1
    25    28    29    1
    26    29    30    1
    27    30    33    1
    28    33    34    1
    29    33    35    1
    30    33    36    1
    31    36    37   am
    32    36    38    2
    33    30    31    1
    34    31    32    1
    35     6     7   ar
    36     7     8   ar
    37     8     9   ar
    38    19    11   ar
    39     9     1   ar
    40    18    13   ar
    41    25    20    1
    42     8     4   ar
    43    32    27    1
    44    37    39    1
    45    37    40    1
@<TRIPOS>MOLECULE
*****
 40 45 0 0 0
SMALL
GASTEIGER

@<TRIPOS>ATOM
      1 C          64.7951   90.9016   13.3090 C.ar    1  UNL1        0.2389
      2 N          63.8170   90.5640   12.2231 N.ar    1  UNL1       -0.1956
      3 C          63.1965   89.1994   12.1702 C.ar    1  UNL1        0.1424
      4 C          63.5542   88.1723   13.2032 C.ar    1  UNL1        0.0785
      5 S          63.1076   86.7547   13.4059 S.2     1  UNL1       -0.0856
      6 C          63.8097   86.2161   14.6170 C.ar    1  UNL1        0.0251
      7 C          64.6903   87.3009   15.1629 C.ar    1  UNL1        0.0233
      8 C          64.5323   88.5098   14.2891 C.ar    1  UNL1        0.0933
      9 N          65.1528   89.8744   14.3421 N.ar    1  UNL1       -0.2105
     10 C          65.8610   92.4213   15.9930 C.3     1  UNL1        0.0723
     11 C          65.9055   92.9647   14.5956 C.ar    1  UNL1        0.1268
     12 N          66.4478   94.3021   14.1865 N.ar    1  UNL1       -0.2305
     13 C          66.2931   94.4301   12.7000 C.ar    1  UNL1        0.0987
     14 C          66.6507   95.5298   11.7447 C.ar    1  UNL1        0.0206
     15 C          66.3703   95.3713   10.2797 C.ar    1  UNL1        0.0016
     16 C          65.7324   94.1130    9.7701 C.ar    1  UNL1        0.0016
     17 C          65.3748   93.0133   10.7254 C.ar    1  UNL1        0.0192
     18 C          65.6552   93.1718   12.1904 C.ar    1  UNL1        0.0854
     19 N          65.4156   92.2662   13.3619 N.ar    1  UNL1       -0.2632
     20 N          62.2183   88.8618   11.0843 N.pl3   1  UNL1       -0.2876
     21 C          62.3254   87.5536   10.3584 C.3     1  UNL1        0.1243
     22 C          61.3473   87.2161    9.2725 C.3     1  UNL1        0.1636
     23 O          60.2619   88.1868    8.9124 O.3     1  UNL1       -0.3501
     24 C          60.1548   89.4951    9.6383 C.3     1  UNL1        0.1636
     25 C          61.1330   89.8326   10.7242 C.3     1  UNL1        0.1243
     26 C          63.6581   84.8354   15.1829 C.3     1  UNL1        0.1058
     27 N          63.4742   83.6641   14.2639 N.3     1  UNL1       -0.2661
     28 C          64.3602   83.5062   13.0638 C.3     1  UNL1        0.0899
     29 C          64.1765   82.3351   12.1448 C.3     1  UNL1        0.0900
     30 N          63.1068   81.3218   12.4258 N.3     1  UNL1       -0.2655
     31 C          62.2208   81.4797   13.6258 C.3     1  UNL1        0.0900
     32 C          62.4045   82.6508   14.5449 C.3     1  UNL1        0.0899
     33 C          62.9230   80.1507   11.5068 C.3     1  UNL1        0.1145
     34 C          63.3933   80.9836   10.3513 C.3     1  UNL1        0.0253
     35 C          62.4527   79.3177   12.6622 C.3     1  UNL1        0.0253
     36 C          62.7392   78.9795   10.5877 C.2     1  UNL1        0.2321
     37 N          62.5145   79.2046    9.1219 N.am    1  UNL1       -0.3278
     38 O          62.7801   77.5833   11.1346 O.2     1  UNL1       -0.2740
     39 H          62.4876   80.1209    8.7630 H       1  UNL1        0.1450
     40 H          62.3939   78.4359    8.5186 H       1  UNL1        0.1450
@<TRIPOS>BOND
     1    10    11    1
     2    11    12   ar
     3    12    13   ar
     4    13    14   ar
     5    14    15   ar
     6    15    16   ar
     7    16    17   ar
     8    17    18   ar
     9    18    19   ar
    10    19     1    1
    11     1     2   ar
    12     2     3   ar
    13     3    20    1
    14    20    21    1
    15    21    22    1
    16    22    23    1
    17    23    24    1
    18    24    25    1
    19     3     4   ar
    20     4     5   ar
    21     5     6   ar
    22     6    26    1
    23    26    27    1
    24    27    28    1
    25    28    29    1
    26    29    30    1
    27    30    33    1
    28    33    34    1
    29    33    35    1
    30    33    36    1
    31    36    37   am
    32    36    38    2
    33    30    31    1
    34    31    32    1
    35     6     7   ar
    36     7     8   ar
    37     8     9   ar
    38    19    11   ar
    39     9     1   ar
    40    18    13   ar
    41    25    20    1
    42     8     4   ar
    43    32    27    1
    44    37    39    1
    45    37    40    1
