@<TRIPOS>MOLECULE
*****
 34 38 0 0 0
SMALL
GASTEIGER

@<TRIPOS>ATOM
      1 C          62.6602   89.0239   11.3148 C.ar    1  UNL1        0.1074
      2 C          61.4538   89.8854   11.0864 C.ar    1  UNL1        0.0588
      3 S          61.9280   91.2449   10.6656 S.2     1  UNL1       -0.0508
      4 C          63.4275   91.2235   10.6339 C.ar    1  UNL1        0.1646
      5 N          63.8800   89.8508   11.0351 N.ar    1  UNL1       -0.2224
      6 C          63.4020   85.7288   13.3986 C.ar    1  UNL1        0.2416
      7 N          63.4134   87.1652   12.9664 N.ar    1  UNL1       -0.2089
      8 C          62.6488   87.5876   11.7469 C.ar    1  UNL1        0.1026
      9 C          61.8729   86.5736   10.9596 C.ar    1  UNL1        0.0224
     10 C          61.8616   85.1372   11.3919 C.ar    1  UNL1        0.0239
     11 C          62.6261   84.7148   12.6113 C.ar    1  UNL1        0.1189
     12 N          62.6147   83.2785   13.0435 N.ar    1  UNL1       -0.2826
     13 C          62.6181   82.7838   14.4596 C.ar    1  UNL1        0.1826
     14 N          62.6035   81.2843   14.4268 N.ar    1  UNL1       -0.2280
     15 C          62.5910   80.8521   12.9903 C.ar    1  UNL1        0.0786
     16 C          62.5745   79.4361   12.4958 C.3     1  UNL1        0.0538
     17 C          62.5980   82.0847   12.1355 C.ar    1  UNL1        0.0963
     18 C          63.8110   85.8742   15.9601 C.3     1  UNL1        0.2543
     19 O          64.1665   85.3064   14.6180 O.3     1  UNL1       -0.4551
     20 N          64.3181   92.3730   10.2656 N.pl3   1  UNL1       -0.2786
     21 H          64.3035   92.7332    9.3495 H       1  UNL1        0.1555
     22 C          65.2311   92.9736   11.2932 C.ar    1  UNL1        0.1274
     23 C          65.3602   92.5349   12.7218 C.ar    1  UNL1        0.0244
     24 C          66.3840   93.4084   13.3841 C.ar    1  UNL1        0.0773
     25 N          66.8877   94.3869   12.3648 N.ar    1  UNL1       -0.1730
     26 N          66.1751   94.1181   11.0726 N.ar    1  UNL1       -0.2420
     27 C          66.7255   93.2000   14.8298 C.3     1  UNL1        0.0474
     28 C          66.0430   92.1181   15.6131 C.3     1  UNL1        0.0067
     29 C          65.0192   91.2446   14.9508 C.3     1  UNL1        0.0052
     30 C          64.6777   91.4530   13.5052 C.3     1  UNL1        0.0305
     31 C          66.3720   94.8631    9.7856 C.3     1  UNL1        0.0879
     32 C          65.3858   95.9002   10.2351 C.3     1  UNL1        0.0245
     33 C          67.3582   93.8261    9.3362 C.3     1  UNL1        0.0245
     34 C          66.5689   95.6081    8.4987 C.3     1  UNL1        0.0245
@<TRIPOS>BOND
     1    18    19    1
     2    19     6    1
     3     6     7   ar
     4     7     8   ar
     5     8     1    1
     6     1     2   ar
     7     2     3   ar
     8     3     4   ar
     9     4    20    1
    10    20    22    1
    11    22    23   ar
    12    23    24   ar
    13    24    25   ar
    14    25    26   ar
    15    26    31    1
    16    31    32    1
    17    31    33    1
    18    31    34    1
    19    24    27    1
    20    27    28    1
    21    28    29    1
    22    29    30    1
    23     4     5   ar
    24     8     9   ar
    25     9    10   ar
    26    10    11   ar
    27    11    12    1
    28    12    13   ar
    29    13    14   ar
    30    14    15   ar
    31    15    16    1
    32    15    17   ar
    33    11     6   ar
    34    17    12   ar
    35     5     1   ar
    36    26    22   ar
    37    30    23    1
    38    20    21    1
@<TRIPOS>MOLECULE
*****
 34 38 0 0 0
SMALL
GASTEIGER

@<TRIPOS>ATOM
      1 C          64.2902   89.3984   14.0727 C.ar    1  UNL1        0.1074
      2 C          63.9186   89.2780   15.5209 C.ar    1  UNL1        0.0588
      3 S          63.5169   87.8561   15.7797 S.2     1  UNL1       -0.0508
      4 C          63.6403   87.0978   14.4914 C.ar    1  UNL1        0.1646
      5 N          64.1183   88.0510   13.4364 N.ar    1  UNL1       -0.2224
      6 C          66.3581   92.6859   13.2562 C.ar    1  UNL1        0.2416
      7 N          65.8957   91.4372   13.9470 N.ar    1  UNL1       -0.2089
      8 C          64.7526   90.6471   13.3821 C.ar    1  UNL1        0.1026
      9 C          64.0720   91.1056   12.1265 C.ar    1  UNL1        0.0224
     10 C          64.5344   92.3543   11.4358 C.ar    1  UNL1        0.0239
     11 C          65.6775   93.1444   12.0007 C.ar    1  UNL1        0.1189
     12 N          66.1399   94.3931   11.3101 N.ar    1  UNL1       -0.2826
     13 C          66.1526   95.7729   11.8983 C.ar    1  UNL1        0.1826
     14 N          66.6914   96.7138   10.8618 N.ar    1  UNL1       -0.2280
     15 C          67.0117   95.9154    9.6328 C.ar    1  UNL1        0.0786
     16 C          67.5740   96.4564    8.3518 C.3     1  UNL1        0.0538
     17 C          66.6708   94.4811    9.9100 C.ar    1  UNL1        0.0963
     18 C          67.7456   93.4881   15.3011 C.3     1  UNL1        0.2543
     19 O          67.5012   93.4760   13.8212 O.3     1  UNL1       -0.4551
     20 N          63.3387   85.6418   14.2929 N.pl3   1  UNL1       -0.2786
     21 H          63.3664   85.0245   15.0592 H       1  UNL1        0.1555
     22 C          62.9951   85.1266   12.9267 C.ar    1  UNL1        0.1274
     23 C          62.5796   85.9583   11.7495 C.ar    1  UNL1        0.0244
     24 C          62.3343   85.0349   10.5931 C.ar    1  UNL1        0.0773
     25 N          62.5982   83.6326   11.0556 N.ar    1  UNL1       -0.1730
     26 N          63.0066   83.6893   12.4978 N.ar    1  UNL1       -0.2420
     27 C          61.9023   85.5904    9.2685 C.3     1  UNL1        0.0474
     28 C          61.7156   87.0691    9.1002 C.3     1  UNL1        0.0067
     29 C          61.9609   87.9925   10.2566 C.3     1  UNL1        0.0052
     30 C          62.3929   87.4370   11.5813 C.3     1  UNL1        0.0305
     31 C          63.3638   82.5148   13.3598 C.3     1  UNL1        0.0879
     32 C          64.5976   82.2867   12.5378 C.3     1  UNL1        0.0245
     33 C          62.1300   82.7429   14.1819 C.3     1  UNL1        0.0245
     34 C          63.7210   81.3403   14.2218 C.3     1  UNL1        0.0245
@<TRIPOS>BOND
     1    18    19    1
     2    19     6    1
     3     6     7   ar
     4     7     8   ar
     5     8     1    1
     6     1     2   ar
     7     2     3   ar
     8     3     4   ar
     9     4    20    1
    10    20    22    1
    11    22    23   ar
    12    23    24   ar
    13    24    25   ar
    14    25    26   ar
    15    26    31    1
    16    31    32    1
    17    31    33    1
    18    31    34    1
    19    24    27    1
    20    27    28    1
    21    28    29    1
    22    29    30    1
    23     4     5   ar
    24     8     9   ar
    25     9    10   ar
    26    10    11   ar
    27    11    12    1
    28    12    13   ar
    29    13    14   ar
    30    14    15   ar
    31    15    16    1
    32    15    17   ar
    33    11     6   ar
    34    17    12   ar
    35     5     1   ar
    36    26    22   ar
    37    30    23    1
    38    20    21    1
@<TRIPOS>MOLECULE
*****
 34 38 0 0 0
SMALL
GASTEIGER

@<TRIPOS>ATOM
      1 C          63.6235   87.3660   15.1461 C.ar    1  UNL1        0.1074
      2 C          63.0732   87.8084   16.4695 C.ar    1  UNL1        0.0588
      3 S          63.4665   89.2406   16.6795 S.2     1  UNL1       -0.0508
      4 C          64.2598   89.6833   15.4859 C.ar    1  UNL1        0.1646
      5 N          64.3569   88.5247   14.5382 N.ar    1  UNL1       -0.2224
      6 C          62.9667   84.5047   12.4755 C.ar    1  UNL1        0.2416
      7 N          63.1224   85.8669   13.0841 N.ar    1  UNL1       -0.2089
      8 C          63.4677   86.0039   14.5374 C.ar    1  UNL1        0.1026
      9 C          63.6573   84.7789   15.3820 C.ar    1  UNL1        0.0224
     10 C          63.5015   83.4167   14.7733 C.ar    1  UNL1        0.0239
     11 C          63.1562   83.2797   13.3200 C.ar    1  UNL1        0.1189
     12 N          63.0005   81.9177   12.7114 N.ar    1  UNL1       -0.2826
     13 C          62.6689   80.6546   13.4497 C.ar    1  UNL1        0.1826
     14 N          62.6124   79.5359   12.4522 N.ar    1  UNL1       -0.2280
     15 C          62.9091   80.1074   11.0973 C.ar    1  UNL1        0.0786
     16 C          62.9574   79.3413    9.8086 C.3     1  UNL1        0.0538
     17 C          63.1489   81.5794   11.2576 C.ar    1  UNL1        0.0963
     18 C          62.1594   85.5646   10.2450 C.3     1  UNL1        0.2543
     19 O          62.6214   84.3677   11.0222 O.3     1  UNL1       -0.4551
     20 N          64.8522   91.0455   15.2768 N.pl3   1  UNL1       -0.2786
     21 H          65.0502   91.6204   16.0511 H       1  UNL1        0.1555
     22 C          65.1429   91.5317   13.8879 C.ar    1  UNL1        0.1274
     23 C          64.2605   91.3522   12.6882 C.ar    1  UNL1        0.0244
     24 C          64.9392   91.9923   11.5136 C.ar    1  UNL1        0.0773
     25 N          66.2411   92.5674   11.9874 N.ar    1  UNL1       -0.1730
     26 N          66.3670   92.2827   13.4548 N.ar    1  UNL1       -0.2420
     27 C          64.2842   91.9689   10.1645 C.3     1  UNL1        0.0474
     28 C          62.9504   91.3053    9.9899 C.3     1  UNL1        0.0067
     29 C          62.2716   90.6652   11.1644 C.3     1  UNL1        0.0052
     30 C          62.9267   90.6886   12.5136 C.3     1  UNL1        0.0305
     31 C          67.5153   92.6794   14.3345 C.3     1  UNL1        0.0879
     32 C          68.3282   91.5448   13.7852 C.3     1  UNL1        0.0245
     33 C          66.7024   93.8141   14.8839 C.3     1  UNL1        0.0245
     34 C          68.6636   93.0761   15.2143 C.3     1  UNL1        0.0245
@<TRIPOS>BOND
     1    18    19    1
     2    19     6    1
     3     6     7   ar
     4     7     8   ar
     5     8     1    1
     6     1     2   ar
     7     2     3   ar
     8     3     4   ar
     9     4    20    1
    10    20    22    1
    11    22    23   ar
    12    23    24   ar
    13    24    25   ar
    14    25    26   ar
    15    26    31    1
    16    31    32    1
    17    31    33    1
    18    31    34    1
    19    24    27    1
    20    27    28    1
    21    28    29    1
    22    29    30    1
    23     4     5   ar
    24     8     9   ar
    25     9    10   ar
    26    10    11   ar
    27    11    12    1
    28    12    13   ar
    29    13    14   ar
    30    14    15   ar
    31    15    16    1
    32    15    17   ar
    33    11     6   ar
    34    17    12   ar
    35     5     1   ar
    36    26    22   ar
    37    30    23    1
    38    20    21    1
@<TRIPOS>MOLECULE
*****
 34 38 0 0 0
SMALL
GASTEIGER

@<TRIPOS>ATOM
      1 C          59.7271   90.8771    5.0373 C.ar    1  UNL1        0.1074
      2 C          58.2691   91.1585    5.2497 C.ar    1  UNL1        0.0588
      3 S          57.7595   90.2042    6.2888 S.2     1  UNL1       -0.0508
      4 C          58.9024   89.3331    6.7185 C.ar    1  UNL1        0.1646
      5 N          60.1185   89.7490    5.9451 N.ar    1  UNL1       -0.2224
      6 C          61.0477   93.5276    2.3952 C.ar    1  UNL1        0.2416
      7 N          60.1404   92.8074    3.3481 N.ar    1  UNL1       -0.2089
      8 C          60.6343   91.5974    4.0844 C.ar    1  UNL1        0.1026
      9 C          62.0355   91.1077    3.8677 C.ar    1  UNL1        0.0224
     10 C          62.9428   91.8281    2.9147 C.ar    1  UNL1        0.0239
     11 C          62.4488   93.0380    2.1785 C.ar    1  UNL1        0.1189
     12 N          63.3561   93.7583    1.2256 N.ar    1  UNL1       -0.2826
     13 C          64.6188   94.4827    1.5875 C.ar    1  UNL1        0.1826
     14 N          65.2030   95.0528    0.3291 N.ar    1  UNL1       -0.2280
     15 C          64.3014   94.6807   -0.8106 C.ar    1  UNL1        0.0786
     16 C          64.5055   95.0448   -2.2514 C.3     1  UNL1        0.0538
     17 C          63.1599   93.8807   -0.2564 C.ar    1  UNL1        0.0963
     18 C          59.5490   94.5858    0.5556 C.3     1  UNL1        0.2543
     19 O          60.5538   94.7376    1.6590 O.3     1  UNL1       -0.4551
     20 N          58.8403   88.2383    7.7422 N.pl3   1  UNL1       -0.2786
     21 H          57.9712   87.8548    8.0006 H       1  UNL1        0.1555
     22 C          60.1024   87.7279    8.3720 C.ar    1  UNL1        0.1274
     23 C          60.9276   86.5745    7.8835 C.ar    1  UNL1        0.0244
     24 C          62.0960   86.4151    8.8104 C.ar    1  UNL1        0.0773
     25 N          61.9930   87.4700    9.8718 N.ar    1  UNL1       -0.1730
     26 N          60.7608   88.2814    9.6009 N.ar    1  UNL1       -0.2420
     27 C          63.1029   85.3299    8.5683 C.3     1  UNL1        0.0474
     28 C          62.9413   84.4042    7.3992 C.3     1  UNL1        0.0067
     29 C          61.7728   84.5637    6.4722 C.3     1  UNL1        0.0052
     30 C          60.7660   85.6488    6.7143 C.3     1  UNL1        0.0305
     31 C          60.2728   89.4424   10.4157 C.3     1  UNL1        0.0879
     32 C          61.0830   90.3779    9.5681 C.3     1  UNL1        0.0245
     33 C          59.4626   88.5069   11.2633 C.3     1  UNL1        0.0245
     34 C          59.7848   90.6034   11.2305 C.3     1  UNL1        0.0245
@<TRIPOS>BOND
     1    18    19    1
     2    19     6    1
     3     6     7   ar
     4     7     8   ar
     5     8     1    1
     6     1     2   ar
     7     2     3   ar
     8     3     4   ar
     9     4    20    1
    10    20    22    1
    11    22    23   ar
    12    23    24   ar
    13    24    25   ar
    14    25    26   ar
    15    26    31    1
    16    31    32    1
    17    31    33    1
    18    31    34    1
    19    24    27    1
    20    27    28    1
    21    28    29    1
    22    29    30    1
    23     4     5   ar
    24     8     9   ar
    25     9    10   ar
    26    10    11   ar
    27    11    12    1
    28    12    13   ar
    29    13    14   ar
    30    14    15   ar
    31    15    16    1
    32    15    17   ar
    33    11     6   ar
    34    17    12   ar
    35     5     1   ar
    36    26    22   ar
    37    30    23    1
    38    20    21    1
@<TRIPOS>MOLECULE
*****
 34 38 0 0 0
SMALL
GASTEIGER

@<TRIPOS>ATOM
      1 C          62.3164   90.0554   12.4997 C.ar    1  UNL1        0.1074
      2 C          60.9715   90.7188   12.4719 C.ar    1  UNL1        0.0588
      3 S          59.9852   89.7433   11.9013 S.2     1  UNL1       -0.0508
      4 C          60.7206   88.4770   11.5764 C.ar    1  UNL1        0.1646
      5 N          62.1615   88.6699   11.9463 N.ar    1  UNL1       -0.2224
      6 C          65.5838   92.3029   12.6519 C.ar    1  UNL1        0.2416
      7 N          64.3078   91.6887   12.1574 N.ar    1  UNL1       -0.2089
      8 C          63.5924   90.6697   12.9941 C.ar    1  UNL1        0.1026
      9 C          64.1532   90.2650   14.3252 C.ar    1  UNL1        0.0224
     10 C          65.4292   90.8794   14.8196 C.ar    1  UNL1        0.0239
     11 C          66.1445   91.8983   13.9829 C.ar    1  UNL1        0.1189
     12 N          67.4205   92.5126   14.4773 N.ar    1  UNL1       -0.2826
     13 C          68.8081   92.0987   14.0854 C.ar    1  UNL1        0.1826
     14 N          69.7781   92.9789   14.8163 N.ar    1  UNL1       -0.2280
     15 C          68.9901   93.9368   15.6599 C.ar    1  UNL1        0.0786
     16 C          69.5593   94.9968   16.5557 C.3     1  UNL1        0.0538
     17 C          67.5330   93.6485   15.4503 C.ar    1  UNL1        0.0963
     18 C          66.6744   92.9997   10.3990 C.3     1  UNL1        0.2543
     19 O          66.2991   93.3219   11.8151 O.3     1  UNL1       -0.4551
     20 N          60.1206   87.2357   10.9855 N.pl3   1  UNL1       -0.2786
     21 H          59.2350   86.9266   11.2844 H       1  UNL1        0.1555
     22 C          60.8700   86.4653    9.9390 C.ar    1  UNL1        0.1274
     23 C          61.9114   85.4161   10.1934 C.ar    1  UNL1        0.0244
     24 C          62.3945   84.9113    8.8661 C.ar    1  UNL1        0.0773
     25 N          61.6517   85.6485    7.7915 N.ar    1  UNL1       -0.1730
     26 N          60.7095   86.6089    8.4546 N.ar    1  UNL1       -0.2420
     27 C          63.4484   83.8455    8.8075 C.3     1  UNL1        0.0474
     28 C          64.0191   83.2847   10.0761 C.3     1  UNL1        0.0067
     29 C          63.5360   83.7895   11.4034 C.3     1  UNL1        0.0052
     30 C          62.4821   84.8552   11.4620 C.3     1  UNL1        0.0305
     31 C          59.7715   87.5481    7.7559 C.3     1  UNL1        0.0879
     32 C          60.6510   88.7044    8.1294 C.3     1  UNL1        0.0245
     33 C          58.8920   86.3918    7.3824 C.3     1  UNL1        0.0245
     34 C          58.8335   88.4873    7.0572 C.3     1  UNL1        0.0245
@<TRIPOS>BOND
     1    18    19    1
     2    19     6    1
     3     6     7   ar
     4     7     8   ar
     5     8     1    1
     6     1     2   ar
     7     2     3   ar
     8     3     4   ar
     9     4    20    1
    10    20    22    1
    11    22    23   ar
    12    23    24   ar
    13    24    25   ar
    14    25    26   ar
    15    26    31    1
    16    31    32    1
    17    31    33    1
    18    31    34    1
    19    24    27    1
    20    27    28    1
    21    28    29    1
    22    29    30    1
    23     4     5   ar
    24     8     9   ar
    25     9    10   ar
    26    10    11   ar
    27    11    12    1
    28    12    13   ar
    29    13    14   ar
    30    14    15   ar
    31    15    16    1
    32    15    17   ar
    33    11     6   ar
    34    17    12   ar
    35     5     1   ar
    36    26    22   ar
    37    30    23    1
    38    20    21    1
@<TRIPOS>MOLECULE
*****
 34 38 0 0 0
SMALL
GASTEIGER

@<TRIPOS>ATOM
      1 C          62.2313   87.8829   11.5183 C.ar    1  UNL1        0.1074
      2 C          61.2817   88.6886   10.6822 C.ar    1  UNL1        0.0588
      3 S          61.5278   90.1401   10.9698 S.2     1  UNL1       -0.0508
      4 C          62.6295   90.2314   11.9837 C.ar    1  UNL1        0.1646
      5 N          63.0642   88.8364   12.3227 N.ar    1  UNL1       -0.2224
      6 C          62.7462   84.1823   12.8563 C.ar    1  UNL1        0.2416
      7 N          62.6470   85.6788   12.8294 N.ar    1  UNL1       -0.2089
      8 C          62.3304   86.3865   11.5452 C.ar    1  UNL1        0.1026
      9 C          62.1130   85.5976   10.2881 C.ar    1  UNL1        0.0224
     10 C          62.2122   84.1011   10.3151 C.ar    1  UNL1        0.0239
     11 C          62.5288   83.3935   11.5992 C.ar    1  UNL1        0.1189
     12 N          62.6280   81.8970   11.6262 N.ar    1  UNL1       -0.2826
     13 C          62.5077   81.0272   12.8424 C.ar    1  UNL1        0.1826
     14 N          62.6702   79.6003   12.4096 N.ar    1  UNL1       -0.2280
     15 C          62.8909   79.5881   10.9259 C.ar    1  UNL1        0.0786
     16 C          63.1008   78.3703   10.0757 C.3     1  UNL1        0.0538
     17 C          62.8648   81.0077   10.4418 C.ar    1  UNL1        0.0963
     18 C          63.6285   84.2409   15.2993 C.3     1  UNL1        0.2543
     19 O          63.0627   83.4747   14.1405 O.3     1  UNL1       -0.4551
     20 N          63.1968   91.4958   12.5579 N.pl3   1  UNL1       -0.2786
     21 H          62.6325   92.2990   12.6328 H       1  UNL1        0.1555
     22 C          64.6240   91.5363   13.0180 C.ar    1  UNL1        0.1274
     23 C          65.8079   91.9295   12.1851 C.ar    1  UNL1        0.0244
     24 C          67.0334   91.8269   13.0440 C.ar    1  UNL1        0.0773
     25 N          66.6068   91.3703   14.4077 N.ar    1  UNL1       -0.1730
     26 N          65.1176   91.1906   14.3916 N.ar    1  UNL1       -0.2420
     27 C          68.3794   92.1626   12.4735 C.3     1  UNL1        0.0474
     28 C          68.4999   92.6008   11.0440 C.3     1  UNL1        0.0067
     29 C          67.2744   92.7034   10.1851 C.3     1  UNL1        0.0052
     30 C          65.9284   92.3678   10.7557 C.3     1  UNL1        0.0305
     31 C          64.2709   90.7438   15.5463 C.3     1  UNL1        0.0879
     32 C          64.2848   89.3415   15.0138 C.3     1  UNL1        0.0245
     33 C          64.2571   92.1460   16.0787 C.3     1  UNL1        0.0245
     34 C          63.4242   90.2970   16.7010 C.3     1  UNL1        0.0245
@<TRIPOS>BOND
     1    18    19    1
     2    19     6    1
     3     6     7   ar
     4     7     8   ar
     5     8     1    1
     6     1     2   ar
     7     2     3   ar
     8     3     4   ar
     9     4    20    1
    10    20    22    1
    11    22    23   ar
    12    23    24   ar
    13    24    25   ar
    14    25    26   ar
    15    26    31    1
    16    31    32    1
    17    31    33    1
    18    31    34    1
    19    24    27    1
    20    27    28    1
    21    28    29    1
    22    29    30    1
    23     4     5   ar
    24     8     9   ar
    25     9    10   ar
    26    10    11   ar
    27    11    12    1
    28    12    13   ar
    29    13    14   ar
    30    14    15   ar
    31    15    16    1
    32    15    17   ar
    33    11     6   ar
    34    17    12   ar
    35     5     1   ar
    36    26    22   ar
    37    30    23    1
    38    20    21    1
@<TRIPOS>MOLECULE
*****
 34 38 0 0 0
SMALL
GASTEIGER

@<TRIPOS>ATOM
      1 C          62.5881   88.9497   10.8039 C.ar    1  UNL1        0.1074
      2 C          61.3497   89.7899   10.9061 C.ar    1  UNL1        0.0588
      3 S          61.7404   91.2206   10.6813 S.2     1  UNL1       -0.0508
      4 C          63.2202   91.2646   10.4402 C.ar    1  UNL1        0.1646
      5 N          63.7442   89.8611   10.5159 N.ar    1  UNL1       -0.2224
      6 C          62.7316   85.0862    9.9076 C.ar    1  UNL1        0.2416
      7 N          62.6615   86.5763    9.7496 N.ar    1  UNL1       -0.2089
      8 C          62.6582   87.4597   10.9619 C.ar    1  UNL1        0.1026
      9 C          62.7249   86.8531   12.3321 C.ar    1  UNL1        0.0224
     10 C          62.7950   85.3630   12.4901 C.ar    1  UNL1        0.0239
     11 C          62.7983   84.4797   11.2778 C.ar    1  UNL1        0.1189
     12 N          62.8684   82.9897   11.4358 N.ar    1  UNL1       -0.2826
     13 C          63.4350   82.0229   10.4385 C.ar    1  UNL1        0.1826
     14 N          63.3009   80.6406   11.0051 N.ar    1  UNL1       -0.2280
     15 C          62.6515   80.7529   12.3527 C.ar    1  UNL1        0.0786
     16 C          62.3264   79.6135   13.2725 C.3     1  UNL1        0.0538
     17 C          62.3842   82.2048   12.6188 C.ar    1  UNL1        0.0963
     18 C          62.6427   84.8081    7.3260 C.3     1  UNL1        0.2543
     19 O          62.7349   84.2028    8.6954 O.3     1  UNL1       -0.4551
     20 N          64.0335   92.4959   10.1706 N.pl3   1  UNL1       -0.2786
     21 H          63.8878   93.0109    9.3443 H       1  UNL1        0.1555
     22 C          65.0685   92.9426   11.1601 C.ar    1  UNL1        0.1274
     23 C          65.2259   92.4330   12.5621 C.ar    1  UNL1        0.0244
     24 C          66.3825   93.1527   13.1898 C.ar    1  UNL1        0.0773
     25 N          66.9400   94.1072   12.1758 N.ar    1  UNL1       -0.1730
     26 N          66.1279   93.9774   10.9214 N.ar    1  UNL1       -0.2420
     27 C          66.7787   92.8460   14.6037 C.3     1  UNL1        0.0474
     28 C          66.0183   91.8195   15.3897 C.3     1  UNL1        0.0067
     29 C          64.8616   91.0997   14.7620 C.3     1  UNL1        0.0052
     30 C          64.4654   91.4065   13.3482 C.3     1  UNL1        0.0305
     31 C          66.3382   94.7471    9.6513 C.3     1  UNL1        0.0879
     32 C          65.3970   95.8085   10.1387 C.3     1  UNL1        0.0245
     33 C          67.2794   93.6857    9.1639 C.3     1  UNL1        0.0245
     34 C          66.5486   95.5169    8.3811 C.3     1  UNL1        0.0245
@<TRIPOS>BOND
     1    18    19    1
     2    19     6    1
     3     6     7   ar
     4     7     8   ar
     5     8     1    1
     6     1     2   ar
     7     2     3   ar
     8     3     4   ar
     9     4    20    1
    10    20    22    1
    11    22    23   ar
    12    23    24   ar
    13    24    25   ar
    14    25    26   ar
    15    26    31    1
    16    31    32    1
    17    31    33    1
    18    31    34    1
    19    24    27    1
    20    27    28    1
    21    28    29    1
    22    29    30    1
    23     4     5   ar
    24     8     9   ar
    25     9    10   ar
    26    10    11   ar
    27    11    12    1
    28    12    13   ar
    29    13    14   ar
    30    14    15   ar
    31    15    16    1
    32    15    17   ar
    33    11     6   ar
    34    17    12   ar
    35     5     1   ar
    36    26    22   ar
    37    30    23    1
    38    20    21    1
@<TRIPOS>MOLECULE
*****
 34 38 0 0 0
SMALL
GASTEIGER

@<TRIPOS>ATOM
      1 C          63.3537   86.2349   14.9643 C.ar    1  UNL1        0.1074
      2 C          62.9477   86.3408   16.4044 C.ar    1  UNL1        0.0588
      3 S          63.1931   87.7511   16.8525 S.2     1  UNL1       -0.0508
      4 C          63.7507   88.5167   15.6894 C.ar    1  UNL1        0.1646
      5 N          63.8499   87.5796   14.5223 N.ar    1  UNL1       -0.2224
      6 C          62.6621   82.4911   13.8435 C.ar    1  UNL1        0.2416
      7 N          62.7389   83.7252   14.6928 N.ar    1  UNL1       -0.2089
      8 C          63.2768   85.0008   14.1151 C.ar    1  UNL1        0.1026
      9 C          63.7379   85.0422   12.6883 C.ar    1  UNL1        0.0224
     10 C          63.6611   83.8080   11.8392 C.ar    1  UNL1        0.0239
     11 C          63.1232   82.5325   12.4168 C.ar    1  UNL1        0.1189
     12 N          63.0463   81.2984   11.5677 N.ar    1  UNL1       -0.2826
     13 C          63.1602   81.2482   10.0728 C.ar    1  UNL1        0.1826
     14 N          63.0264   79.8166    9.6455 N.ar    1  UNL1       -0.2280
     15 C          62.8299   78.9819   10.8764 C.ar    1  UNL1        0.0786
     16 C          62.6522   77.4929   10.9128 C.3     1  UNL1        0.0538
     17 C          62.8422   79.8978   12.0643 C.ar    1  UNL1        0.0963
     18 C          60.6752   80.8673   14.2506 C.3     1  UNL1        0.2543
     19 O          62.1242   81.2156   14.4212 O.3     1  UNL1       -0.4551
     20 N          64.1406   89.9653   15.6926 N.pl3   1  UNL1       -0.2786
     21 H          64.2114   90.4541   16.5443 H       1  UNL1        0.1555
     22 C          64.4226   90.6690   14.3983 C.ar    1  UNL1        0.1274
     23 C          63.6274   90.5396   13.1330 C.ar    1  UNL1        0.0244
     24 C          64.2626   91.4162   12.0947 C.ar    1  UNL1        0.0773
     25 N          65.4503   92.0874   12.7184 N.ar    1  UNL1       -0.1730
     26 N          65.5492   91.6255   14.1421 N.ar    1  UNL1       -0.2420
     27 C          63.6775   91.4901   10.7156 C.3     1  UNL1        0.0474
     28 C          62.4571   90.6873   10.3747 C.3     1  UNL1        0.0067
     29 C          61.8219   89.8107   11.4130 C.3     1  UNL1        0.0052
     30 C          62.4071   89.7368   12.7921 C.3     1  UNL1        0.0305
     31 C          66.5917   92.0464   15.1351 C.3     1  UNL1        0.0879
     32 C          65.5139   92.5053   16.0720 C.3     1  UNL1        0.0245
     33 C          67.6695   91.5875   14.1982 C.3     1  UNL1        0.0245
     34 C          67.6341   92.4672   16.1282 C.3     1  UNL1        0.0245
@<TRIPOS>BOND
     1    18    19    1
     2    19     6    1
     3     6     7   ar
     4     7     8   ar
     5     8     1    1
     6     1     2   ar
     7     2     3   ar
     8     3     4   ar
     9     4    20    1
    10    20    22    1
    11    22    23   ar
    12    23    24   ar
    13    24    25   ar
    14    25    26   ar
    15    26    31    1
    16    31    32    1
    17    31    33    1
    18    31    34    1
    19    24    27    1
    20    27    28    1
    21    28    29    1
    22    29    30    1
    23     4     5   ar
    24     8     9   ar
    25     9    10   ar
    26    10    11   ar
    27    11    12    1
    28    12    13   ar
    29    13    14   ar
    30    14    15   ar
    31    15    16    1
    32    15    17   ar
    33    11     6   ar
    34    17    12   ar
    35     5     1   ar
    36    26    22   ar
    37    30    23    1
    38    20    21    1
@<TRIPOS>MOLECULE
*****
 34 38 0 0 0
SMALL
GASTEIGER

@<TRIPOS>ATOM
      1 C          62.5207   89.6808   11.1488 C.ar    1  UNL1        0.1074
      2 C          61.3420   90.3332   10.4892 C.ar    1  UNL1        0.0588
      3 S          60.6375   89.2949    9.6673 S.2     1  UNL1       -0.0508
      4 C          61.3807   88.0008    9.8191 C.ar    1  UNL1        0.1646
      5 N          62.5446   88.2393   10.7347 N.ar    1  UNL1       -0.2224
      6 C          65.1289   92.3149   12.5662 C.ar    1  UNL1        0.2416
      7 N          64.1466   91.6437   11.6526 N.ar    1  UNL1       -0.2089
      8 C          63.5030   90.3521   12.0623 C.ar    1  UNL1        0.1026
      9 C          63.8417   89.7319   13.3854 C.ar    1  UNL1        0.0224
     10 C          64.8241   90.4032   14.2989 C.ar    1  UNL1        0.0239
     11 C          65.4677   91.6947   13.8892 C.ar    1  UNL1        0.1189
     12 N          66.4500   92.3660   14.8026 N.ar    1  UNL1       -0.2826
     13 C          66.2048   92.7504   16.2318 C.ar    1  UNL1        0.1826
     14 N          67.4532   93.3927   16.7597 N.ar    1  UNL1       -0.2280
     15 C          68.4700   93.4054   15.6570 C.ar    1  UNL1        0.0786
     16 C          69.8624   93.9559   15.7478 C.3     1  UNL1        0.0538
     17 C          67.8499   92.7708   14.4474 C.ar    1  UNL1        0.0963
     18 C          65.8470   93.9802   10.7057 C.3     1  UNL1        0.2543
     19 O          65.7725   93.6064   12.1565 O.3     1  UNL1       -0.4551
     20 N          61.0228   86.6970    9.1692 N.pl3   1  UNL1       -0.2786
     21 H          60.1758   86.6094    8.6750 H       1  UNL1        0.1555
     22 C          61.9554   85.5267    9.2724 C.ar    1  UNL1        0.1274
     23 C          62.6186   85.0357   10.5250 C.ar    1  UNL1        0.0244
     24 C          63.4616   83.8474   10.1679 C.ar    1  UNL1        0.0773
     25 N          63.3193   83.6042    8.6946 N.ar    1  UNL1       -0.1730
     26 N          62.3884   84.6420    8.1412 N.ar    1  UNL1       -0.2420
     27 C          64.2498   83.1405   11.2304 C.3     1  UNL1        0.0474
     28 C          64.1950   83.6218   12.6500 C.3     1  UNL1        0.0067
     29 C          63.3521   84.8101   13.0071 C.3     1  UNL1        0.0052
     30 C          62.5638   85.5170   11.9446 C.3     1  UNL1        0.0305
     31 C          61.9650   84.7722    6.7081 C.3     1  UNL1        0.0879
     32 C          60.5629   85.0709    7.1496 C.3     1  UNL1        0.0245
     33 C          63.3671   84.4736    6.2666 C.3     1  UNL1        0.0245
     34 C          61.5415   84.9025    5.2750 C.3     1  UNL1        0.0245
@<TRIPOS>BOND
     1    18    19    1
     2    19     6    1
     3     6     7   ar
     4     7     8   ar
     5     8     1    1
     6     1     2   ar
     7     2     3   ar
     8     3     4   ar
     9     4    20    1
    10    20    22    1
    11    22    23   ar
    12    23    24   ar
    13    24    25   ar
    14    25    26   ar
    15    26    31    1
    16    31    32    1
    17    31    33    1
    18    31    34    1
    19    24    27    1
    20    27    28    1
    21    28    29    1
    22    29    30    1
    23     4     5   ar
    24     8     9   ar
    25     9    10   ar
    26    10    11   ar
    27    11    12    1
    28    12    13   ar
    29    13    14   ar
    30    14    15   ar
    31    15    16    1
    32    15    17   ar
    33    11     6   ar
    34    17    12   ar
    35     5     1   ar
    36    26    22   ar
    37    30    23    1
    38    20    21    1
