@<TRIPOS>MOLECULE
*****
 33 37 0 0 0
SMALL
GASTEIGER

@<TRIPOS>ATOM
      1 C          61.5146   88.7123   11.2700 C.3     1  UNL1        0.1096
      2 C          60.5247   89.4149   10.3888 C.3     1  UNL1        0.1622
      3 O          59.8647   88.6747    9.2634 O.3     1  UNL1       -0.3502
      4 C          60.1945   87.2320    9.0192 C.3     1  UNL1        0.1637
      5 C          61.1843   86.5294    9.9004 C.3     1  UNL1        0.1257
      6 N          61.8444   87.2696   11.0258 N.am    1  UNL1       -0.2723
      7 C          62.8343   86.5670   11.9070 C.2     1  UNL1        0.2506
      8 O          63.4943   87.3072   13.0324 O.2     1  UNL1       -0.2699
      9 C          63.1641   85.1242   11.6629 C.ar    1  UNL1        0.0729
     10 C          63.3060   84.6144   10.2593 C.ar    1  UNL1        0.0061
     11 C          63.6359   83.1716   10.0152 C.ar    1  UNL1        0.0002
     12 C          63.8237   82.2386   11.1745 C.ar    1  UNL1        0.0016
     13 C          63.6818   82.7484   12.5781 C.ar    1  UNL1        0.0211
     14 C          63.3519   84.1912   12.8222 C.ar    1  UNL1        0.1072
     15 N          63.2100   84.7009   14.2259 N.ar    1  UNL1       -0.1477
     16 N          61.9418   84.7388   15.0261 N.ar    1  UNL1       -0.1447
     17 C          62.2593   85.3236   16.3704 C.ar    1  UNL1        0.1446
     18 C          63.7237   85.6471   16.4010 C.ar    1  UNL1        0.1446
     19 N          64.3112   85.2623   15.0756 N.ar    1  UNL1       -0.1447
     20 C          62.1746   89.4525   12.3954 C.3     1  UNL1        0.0487
     21 C          65.4216   92.4435   11.5228 C.ar    1  UNL1        0.1406
     22 C          64.4182   92.0954   10.4636 C.ar    1  UNL1        0.0366
     23 C          63.3358   91.0984   10.7545 C.ar    1  UNL1       -0.0011
     24 C          63.2569   90.4495   12.1045 C.ar    1  UNL1       -0.0202
     25 C          64.2604   90.7976   13.1637 C.ar    1  UNL1        0.0008
     26 C          65.3427   91.7945   12.8729 C.ar    1  UNL1        0.0574
     27 C          66.3462   92.1426   13.9321 C.ar    1  UNL1        0.1137
     28 N          67.8260   92.2842   13.7323 N.ar    1  UNL1       -0.2367
     29 C          68.4404   92.6393   15.0538 C.ar    1  UNL1        0.1064
     30 C          67.3402   92.7171   16.0705 C.ar    1  UNL1        0.0575
     31 S          66.0459   92.4101   15.3772 S.2     1  UNL1       -0.0658
     32 C          66.2145   94.9094   11.3225 C.3     1  UNL1        0.2525
     33 O          66.5039   93.4404   11.2320 O.3     1  UNL1       -0.4714
@<TRIPOS>BOND
     1    32    33    1
     2    33    21    1
     3    21    22   ar
     4    22    23   ar
     5    23    24   ar
     6    24    20    1
     7     1    20    1
     8     1     2    1
     9     2     3    1
    10     3     4    1
    11     4     5    1
    12     5     6    1
    13     6     7   am
    14     7     8    2
    15     7     9    1
    16     9    10   ar
    17    10    11   ar
    18    11    12   ar
    19    12    13   ar
    20    13    14   ar
    21    14    15    1
    22    15    16   ar
    23    16    17   ar
    24    17    18   ar
    25    18    19   ar
    26    24    25   ar
    27    25    26   ar
    28    26    27    1
    29    27    28   ar
    30    28    29   ar
    31    29    30   ar
    32    30    31   ar
    33    26    21   ar
    34    31    27   ar
    35     6     1    1
    36    14     9   ar
    37    19    15   ar
@<TRIPOS>MOLECULE
*****
 33 37 0 0 0
SMALL
GASTEIGER

@<TRIPOS>ATOM
      1 C          62.1781   89.5559   11.8959 C.3     1  UNL1        0.1096
      2 C          61.4957   90.6034   11.0669 C.3     1  UNL1        0.1622
      3 O          60.9406   90.2492    9.7192 O.3     1  UNL1       -0.3502
      4 C          61.0680   88.8476    9.2004 C.3     1  UNL1        0.1637
      5 C          61.7504   87.8001   10.0293 C.3     1  UNL1        0.1257
      6 N          62.3054   88.1543   11.3771 N.am    1  UNL1       -0.2723
      7 C          62.9878   87.1068   12.2060 C.2     1  UNL1        0.2506
      8 O          63.5429   87.4610   13.5538 O.2     1  UNL1       -0.2699
      9 C          63.1152   85.7052   11.6872 C.ar    1  UNL1        0.0729
     10 C          63.1451   85.4524   10.2090 C.ar    1  UNL1        0.0061
     11 C          63.2724   84.0508    9.6902 C.ar    1  UNL1        0.0002
     12 C          63.3699   82.9019   10.6496 C.ar    1  UNL1        0.0016
     13 C          63.3399   83.1546   12.1278 C.ar    1  UNL1        0.0211
     14 C          63.2126   84.5563   12.6466 C.ar    1  UNL1        0.1072
     15 N          63.1827   84.8090   14.1249 N.ar    1  UNL1       -0.1477
     16 N          64.3661   85.1319   14.9883 N.ar    1  UNL1       -0.1447
     17 C          63.8790   85.3057   16.3963 C.ar    1  UNL1        0.1446
     18 C          62.3945   85.0902   16.4031 C.ar    1  UNL1        0.1446
     19 N          61.9642   84.7832   14.9993 N.ar    1  UNL1       -0.1447
     20 C          62.7331   89.9101   13.2436 C.3     1  UNL1        0.0487
     21 C          66.6927   92.0246   13.5615 C.ar    1  UNL1        0.1406
     22 C          66.2017   91.1771   14.6975 C.ar    1  UNL1        0.0366
     23 C          64.8818   90.4723   14.5916 C.ar    1  UNL1       -0.0011
     24 C          64.0530   90.6150   13.3496 C.ar    1  UNL1       -0.0202
     25 C          64.5440   91.4625   12.2136 C.ar    1  UNL1        0.0008
     26 C          65.8638   92.1673   12.3195 C.ar    1  UNL1        0.0574
     27 C          66.3548   93.0148   11.1834 C.ar    1  UNL1        0.1137
     28 N          67.4827   92.6765   10.2543 N.ar    1  UNL1       -0.2367
     29 C          67.6290   93.8020    9.2736 C.ar    1  UNL1        0.1064
     30 C          66.5915   94.8361    9.5967 C.ar    1  UNL1        0.0575
     31 S          65.8040   94.3495   10.7770 S.2     1  UNL1       -0.0658
     32 C          68.7526   92.7436   14.9720 C.3     1  UNL1        0.2525
     33 O          68.0125   92.7294   13.6674 O.3     1  UNL1       -0.4714
@<TRIPOS>BOND
     1    32    33    1
     2    33    21    1
     3    21    22   ar
     4    22    23   ar
     5    23    24   ar
     6    24    20    1
     7     1    20    1
     8     1     2    1
     9     2     3    1
    10     3     4    1
    11     4     5    1
    12     5     6    1
    13     6     7   am
    14     7     8    2
    15     7     9    1
    16     9    10   ar
    17    10    11   ar
    18    11    12   ar
    19    12    13   ar
    20    13    14   ar
    21    14    15    1
    22    15    16   ar
    23    16    17   ar
    24    17    18   ar
    25    18    19   ar
    26    24    25   ar
    27    25    26   ar
    28    26    27    1
    29    27    28   ar
    30    28    29   ar
    31    29    30   ar
    32    30    31   ar
    33    26    21   ar
    34    31    27   ar
    35     6     1    1
    36    14     9   ar
    37    19    15   ar
