@<TRIPOS>MOLECULE
*****
 34 37 0 0 0
SMALL
GASTEIGER

@<TRIPOS>ATOM
      1 N          62.9762   90.8162   11.6750 N.am    1  UNL1       -0.2438
      2 C          63.5351   91.4029   10.4127 C.3     1  UNL1        0.1009
      3 C          64.7227   92.3173   10.4724 C.3     1  UNL1        0.0661
      4 C          65.3513   92.6450   11.7943 C.3     1  UNL1        0.1578
      5 O          64.7923   92.0583   13.0566 O.3     1  UNL1       -0.4375
      6 C          63.6048   91.1439   12.9970 C.2     1  UNL1        0.4051
      7 O          63.0458   90.5572   14.2592 O.2     1  UNL1       -0.2262
      8 C          66.2352   93.4416   10.8809 C.ar    1  UNL1        0.0137
      9 C          67.2978   92.7529   10.0769 C.ar    1  UNL1       -0.0010
     10 C          68.1817   93.5496    9.1635 C.ar    1  UNL1       -0.0002
     11 C          68.0029   95.0348    9.0542 C.ar    1  UNL1       -0.0000
     12 C          66.9402   95.7235    9.8582 C.ar    1  UNL1       -0.0002
     13 C          66.0563   94.9269   10.7716 C.ar    1  UNL1       -0.0010
     14 C          60.4039   90.4742   11.5474 C.3     1  UNL1        0.0265
     15 C          61.7886   89.9017   11.6153 C.3     1  UNL1        0.1011
     16 C          61.9859   88.4147   11.6236 C.ar    1  UNL1       -0.0042
     17 C          63.0873   87.8088   12.4420 C.ar    1  UNL1       -0.0027
     18 C          63.2845   86.3219   12.4502 C.ar    1  UNL1       -0.0002
     19 C          62.3803   85.4409   11.6402 C.ar    1  UNL1        0.0014
     20 C          61.2789   86.0468   10.8218 C.ar    1  UNL1       -0.0002
     21 C          61.0817   87.5337   10.8136 C.ar    1  UNL1       -0.0027
     22 C          62.5776   83.9539   11.6485 C.ar    1  UNL1        0.0175
     23 C          63.2967   83.2864   10.5139 C.ar    1  UNL1        0.0064
     24 C          63.4940   81.7994   10.5222 C.ar    1  UNL1        0.0608
     25 C          62.9720   80.9800   11.6651 C.ar    1  UNL1        0.2610
     26 O          63.1693   79.4930   11.6734 O.2     1  UNL1       -0.2670
     27 N          62.2528   81.6476   12.7997 N.ar    1  UNL1       -0.2922
     28 C          61.7309   80.8281   13.9425 C.3     1  UNL1        0.1336
     29 C          62.0556   83.1345   12.7913 C.ar    1  UNL1        0.0783
     30 C          66.2869   93.2494   12.7990 C.3     1  UNL1        0.0471
     31 C          66.6567   92.4839   14.0348 C.3     1  UNL1        0.0357
     32 C          68.0703   92.0248   14.2377 C.3     1  UNL1        0.1373
     33 O          68.9115   91.6424   13.0562 O.3     1  UNL1       -0.3820
     34 H          68.5414   90.8487   12.6390 H       1  UNL1        0.2104
@<TRIPOS>BOND
     1    15    14    1
     2    15    16    1
     3    16    17   ar
     4    17    18   ar
     5    18    19   ar
     6    19    22    1
     7    22    23   ar
     8    23    24   ar
     9    24    25   ar
    10    25    26    2
    11    25    27   ar
    12    27    28    1
    13    27    29   ar
    14    19    20   ar
    15    20    21   ar
    16    15     1    1
    17     1     2    1
    18     2     3    1
    19     3     4    1
    20     4    30    1
    21    30    31    1
    22    31    32    1
    23    32    33    1
    24     4     8    1
    25     8     9   ar
    26     9    10   ar
    27    10    11   ar
    28    11    12   ar
    29    12    13   ar
    30     4     5    1
    31     5     6    1
    32     6     7    2
    33    21    16   ar
    34     6     1   am
    35    29    22   ar
    36    13     8   ar
    37    33    34    1
@<TRIPOS>MOLECULE
*****
 34 37 0 0 0
SMALL
GASTEIGER

@<TRIPOS>ATOM
      1 N          63.4086   90.5790   11.9952 N.am    1  UNL1       -0.2438
      2 C          64.1443   90.4885   13.2992 C.3     1  UNL1        0.1009
      3 C          65.3642   91.3297   13.5321 C.3     1  UNL1        0.0661
      4 C          65.8484   92.2614   12.4609 C.3     1  UNL1        0.1578
      5 O          65.1127   92.3519   11.1568 O.3     1  UNL1       -0.4375
      6 C          63.8928   91.5108   10.9239 C.2     1  UNL1        0.4051
      7 O          63.1571   91.6013    9.6199 O.2     1  UNL1       -0.2262
      8 C          66.8763   92.5265   13.5208 C.ar    1  UNL1        0.0137
      9 C          66.5722   93.4789   14.6389 C.ar    1  UNL1       -0.0010
     10 C          67.6000   93.7440   15.6988 C.ar    1  UNL1       -0.0002
     11 C          68.9319   93.0565   15.6404 C.ar    1  UNL1       -0.0000
     12 C          69.2360   92.1040   14.5223 C.ar    1  UNL1       -0.0002
     13 C          68.2082   91.8390   13.4624 C.ar    1  UNL1       -0.0010
     14 C          60.8566   90.3924   11.5450 C.3     1  UNL1        0.0265
     15 C          62.1887   89.7379   11.7624 C.3     1  UNL1        0.1011
     16 C          62.3008   88.2421   11.7468 C.ar    1  UNL1       -0.0042
     17 C          63.2033   87.5475   12.7231 C.ar    1  UNL1       -0.0027
     18 C          63.3154   86.0518   12.7075 C.ar    1  UNL1       -0.0002
     19 C          62.5251   85.2507   11.7158 C.ar    1  UNL1        0.0014
     20 C          61.6226   85.9453   10.7395 C.ar    1  UNL1       -0.0002
     21 C          61.5105   87.4410   10.7551 C.ar    1  UNL1       -0.0027
     22 C          62.6373   83.7549   11.7003 C.ar    1  UNL1        0.0175
     23 C          63.2132   83.0584   10.5032 C.ar    1  UNL1        0.0064
     24 C          63.3254   81.5626   10.4877 C.ar    1  UNL1        0.0608
     25 C          62.8616   80.7635   11.6693 C.ar    1  UNL1        0.2610
     26 O          62.9737   79.2678   11.6538 O.2     1  UNL1       -0.2670
     27 N          62.2856   81.4601   12.8664 N.ar    1  UNL1       -0.2922
     28 C          61.8217   80.6609   14.0480 C.3     1  UNL1        0.1336
     29 C          62.1734   82.9558   12.8819 C.ar    1  UNL1        0.0783
     30 C          66.6896   93.2852   11.7577 C.3     1  UNL1        0.0471
     31 C          66.9556   93.1556   10.2873 C.3     1  UNL1        0.0357
     32 C          68.1806   92.4350    9.8073 C.3     1  UNL1        0.1373
     33 O          69.5127   93.1243    9.8285 O.3     1  UNL1       -0.3820
     34 H          69.5037   93.8646    9.2018 H       1  UNL1        0.2104
@<TRIPOS>BOND
     1    15    14    1
     2    15    16    1
     3    16    17   ar
     4    17    18   ar
     5    18    19   ar
     6    19    22    1
     7    22    23   ar
     8    23    24   ar
     9    24    25   ar
    10    25    26    2
    11    25    27   ar
    12    27    28    1
    13    27    29   ar
    14    19    20   ar
    15    20    21   ar
    16    15     1    1
    17     1     2    1
    18     2     3    1
    19     3     4    1
    20     4    30    1
    21    30    31    1
    22    31    32    1
    23    32    33    1
    24     4     8    1
    25     8     9   ar
    26     9    10   ar
    27    10    11   ar
    28    11    12   ar
    29    12    13   ar
    30     4     5    1
    31     5     6    1
    32     6     7    2
    33    21    16   ar
    34     6     1   am
    35    29    22   ar
    36    13     8   ar
    37    33    34    1
@<TRIPOS>MOLECULE
*****
 34 37 0 0 0
SMALL
GASTEIGER

@<TRIPOS>ATOM
      1 N          63.3655   90.5726   11.9676 N.am    1  UNL1       -0.2438
      2 C          64.0955   90.4797   13.2746 C.3     1  UNL1        0.1009
      3 C          65.3116   91.3239   13.5162 C.3     1  UNL1        0.0661
      4 C          65.7978   92.2610   12.4506 C.3     1  UNL1        0.1578
      5 O          65.0678   92.3539   11.1434 O.3     1  UNL1       -0.4375
      6 C          63.8517   91.5097   10.9019 C.2     1  UNL1        0.4051
      7 O          63.1217   91.6026    9.5948 O.2     1  UNL1       -0.2262
      8 C          66.8199   92.5255   13.5162 C.ar    1  UNL1        0.0137
      9 C          68.1286   91.7928   13.4985 C.ar    1  UNL1       -0.0010
     10 C          69.1507   92.0573   14.5641 C.ar    1  UNL1       -0.0002
     11 C          68.8640   93.0545   15.6472 C.ar    1  UNL1       -0.0000
     12 C          67.5553   93.7872   15.6649 C.ar    1  UNL1       -0.0002
     13 C          66.5332   93.5227   14.5994 C.ar    1  UNL1       -0.0010
     14 C          60.8198   90.3798   11.4858 C.3     1  UNL1        0.0265
     15 C          62.1494   89.7283   11.7261 C.3     1  UNL1        0.1011
     16 C          62.2629   88.2326   11.7248 C.ar    1  UNL1       -0.0042
     17 C          61.4027   87.4159   10.8067 C.ar    1  UNL1       -0.0027
     18 C          61.5162   85.9202   10.8055 C.ar    1  UNL1       -0.0002
     19 C          62.4900   85.2413   11.7224 C.ar    1  UNL1        0.0014
     20 C          63.3503   86.0580   12.6405 C.ar    1  UNL1       -0.0002
     21 C          63.2367   87.5536   12.6417 C.ar    1  UNL1       -0.0027
     22 C          62.6035   83.7455   11.7212 C.ar    1  UNL1        0.0175
     23 C          63.2187   83.0410   10.5485 C.ar    1  UNL1        0.0064
     24 C          63.3322   81.5453   10.5473 C.ar    1  UNL1        0.0608
     25 C          62.8305   80.7541   11.7188 C.ar    1  UNL1        0.2610
     26 O          62.9440   79.2584   11.7176 O.2     1  UNL1       -0.2670
     27 N          62.2154   81.4587   12.8915 N.ar    1  UNL1       -0.2922
     28 C          61.7137   80.6675   14.0630 C.3     1  UNL1        0.1336
     29 C          62.1019   82.9544   12.8927 C.ar    1  UNL1        0.0783
     30 C          66.6389   93.2900   11.7551 C.3     1  UNL1        0.0471
     31 C          66.9869   93.1194   10.3060 C.3     1  UNL1        0.0357
     32 C          68.2127   92.3486    9.9147 C.3     1  UNL1        0.1373
     33 O          69.5268   93.0560    9.7631 O.3     1  UNL1       -0.3820
     34 H          69.4776   93.6729    9.0162 H       1  UNL1        0.2104
@<TRIPOS>BOND
     1    15    14    1
     2    15    16    1
     3    16    17   ar
     4    17    18   ar
     5    18    19   ar
     6    19    22    1
     7    22    23   ar
     8    23    24   ar
     9    24    25   ar
    10    25    26    2
    11    25    27   ar
    12    27    28    1
    13    27    29   ar
    14    19    20   ar
    15    20    21   ar
    16    15     1    1
    17     1     2    1
    18     2     3    1
    19     3     4    1
    20     4    30    1
    21    30    31    1
    22    31    32    1
    23    32    33    1
    24     4     8    1
    25     8     9   ar
    26     9    10   ar
    27    10    11   ar
    28    11    12   ar
    29    12    13   ar
    30     4     5    1
    31     5     6    1
    32     6     7    2
    33    21    16   ar
    34     6     1   am
    35    29    22   ar
    36    13     8   ar
    37    33    34    1
@<TRIPOS>MOLECULE
*****
 34 37 0 0 0
SMALL
GASTEIGER

@<TRIPOS>ATOM
      1 N          64.4897   90.5210   14.6159 N.am    1  UNL1       -0.2438
      2 C          64.7624   90.5471   13.1412 C.3     1  UNL1        0.1009
      3 C          65.5292   91.6877   12.5403 C.3     1  UNL1        0.0661
      4 C          66.0231   92.8023   13.4141 C.3     1  UNL1        0.1578
      5 O          65.7504   92.7763   14.8889 O.3     1  UNL1       -0.4375
      6 C          64.9837   91.6356   15.4898 C.2     1  UNL1        0.4051
      7 O          64.7110   91.6095   16.9646 O.2     1  UNL1       -0.2262
      8 C          66.5284   93.2721   12.0821 C.ar    1  UNL1        0.0137
      9 C          67.3311   92.3474   11.2158 C.ar    1  UNL1       -0.0010
     10 C          67.8363   92.8172    9.8839 C.ar    1  UNL1       -0.0002
     11 C          67.5388   94.2118    9.4184 C.ar    1  UNL1       -0.0000
     12 C          66.7361   95.1365   10.2847 C.ar    1  UNL1       -0.0002
     13 C          66.2308   94.6667   11.6166 C.ar    1  UNL1       -0.0010
     14 C          63.0321   89.5539   16.5368 C.3     1  UNL1        0.0265
     15 C          63.7230   89.3803   15.2168 C.3     1  UNL1        0.1011
     16 C          63.6472   88.0661   14.4976 C.ar    1  UNL1       -0.0042
     17 C          63.1907   88.0179   13.0696 C.ar    1  UNL1       -0.0027
     18 C          63.1150   86.7037   12.3505 C.ar    1  UNL1       -0.0002
     19 C          63.4957   85.4378   13.0593 C.ar    1  UNL1        0.0014
     20 C          63.9522   85.4861   14.4873 C.ar    1  UNL1       -0.0002
     21 C          64.0280   86.8002   15.2065 C.ar    1  UNL1       -0.0027
     22 C          63.4199   84.1236   12.3401 C.ar    1  UNL1        0.0175
     23 C          63.8068   84.0369   10.8935 C.ar    1  UNL1        0.0064
     24 C          63.7310   82.7227   10.1743 C.ar    1  UNL1        0.0608
     25 C          63.2683   81.4952   10.9018 C.ar    1  UNL1        0.2610
     26 O          63.1925   80.1811   10.1827 O.2     1  UNL1       -0.2670
     27 N          62.8814   81.5820   12.3485 N.ar    1  UNL1       -0.2922
     28 C          62.4187   80.3545   13.0760 C.3     1  UNL1        0.1336
     29 C          62.9572   82.8961   13.0676 C.ar    1  UNL1        0.0783
     30 C          66.6926   94.0801   13.8254 C.3     1  UNL1        0.0471
     31 C          67.6495   94.0874   14.9804 C.3     1  UNL1        0.0357
     32 C          68.5929   92.9384   15.1801 C.3     1  UNL1        0.1373
     33 O          69.4005   92.4219   14.0264 O.3     1  UNL1       -0.3820
     34 H          68.8073   92.0319   13.3654 H       1  UNL1        0.2104
@<TRIPOS>BOND
     1    15    14    1
     2    15    16    1
     3    16    17   ar
     4    17    18   ar
     5    18    19   ar
     6    19    22    1
     7    22    23   ar
     8    23    24   ar
     9    24    25   ar
    10    25    26    2
    11    25    27   ar
    12    27    28    1
    13    27    29   ar
    14    19    20   ar
    15    20    21   ar
    16    15     1    1
    17     1     2    1
    18     2     3    1
    19     3     4    1
    20     4    30    1
    21    30    31    1
    22    31    32    1
    23    32    33    1
    24     4     8    1
    25     8     9   ar
    26     9    10   ar
    27    10    11   ar
    28    11    12   ar
    29    12    13   ar
    30     4     5    1
    31     5     6    1
    32     6     7    2
    33    21    16   ar
    34     6     1   am
    35    29    22   ar
    36    13     8   ar
    37    33    34    1
