@<TRIPOS>MOLECULE
*****
 35 39 0 0 0
SMALL
GASTEIGER

@<TRIPOS>ATOM
      1 C          63.8256   91.5408   11.0718 C.3     1  UNL1        0.0749
      2 C          63.7280   91.2770   12.5451 C.3     1  UNL1        0.0444
      3 C          64.7821   91.8043   13.4729 C.ar    1  UNL1       -0.0103
      4 C          65.9338   92.5954   12.9272 C.ar    1  UNL1       -0.0091
      5 C          66.9880   93.1228   13.8550 C.ar    1  UNL1       -0.0032
      6 C          66.8904   92.8590   15.3284 C.ar    1  UNL1        0.0010
      7 C          65.7387   92.0679   15.8740 C.ar    1  UNL1        0.0140
      8 C          64.6846   91.5405   14.9463 C.ar    1  UNL1        0.0403
      9 C          66.0314   92.8592   11.4538 C.3     1  UNL1        0.0954
     10 N          64.9772   92.3319   10.5261 N.3     1  UNL1       -0.2934
     11 H          65.4522   91.7329    9.8508 H       1  UNL1        0.1236
     12 N          63.5329   90.7494   15.4920 N.pl3   1  UNL1       -0.3343
     13 H          62.7035   91.2077   15.7590 H       1  UNL1        0.1468
     14 C          63.6448   89.2601   15.6307 C.3     1  UNL1        0.0691
     15 C          63.0518   88.5713   16.8240 C.3     1  UNL1        0.0208
     16 C          63.1638   87.0819   16.9627 C.3     1  UNL1        0.0172
     17 C          63.8688   86.2813   15.9082 C.3     1  UNL1        0.0509
     18 N          63.9808   84.7920   16.0470 N.3     1  UNL1       -0.3222
     19 C          64.4618   86.9701   14.7149 C.3     1  UNL1        0.0172
     20 C          64.3499   88.4594   14.5762 C.3     1  UNL1        0.0208
     21 H          63.5257   84.4958   16.9104 H       1  UNL1        0.1188
     22 H          64.9651   84.5260   16.0729 H       1  UNL1        0.1188
     23 C          62.7714   91.0134   10.1440 C.3     1  UNL1        0.0886
     24 C          60.5002   90.8447   11.3944 C.3     1  UNL1        0.0899
     25 N          61.6441   90.1840   10.6836 N.3     1  UNL1       -0.2667
     26 C          61.6607   88.6939   10.5126 C.3     1  UNL1        0.0978
     27 C          62.4845   87.8424   11.4325 C.3     1  UNL1        0.0224
     28 C          62.5010   86.3523   11.2615 C.3     1  UNL1        0.0065
     29 C          61.6938   85.7136   10.1704 C.3     1  UNL1        0.0277
     30 C          60.8699   86.5651    9.2504 C.ar    1  UNL1       -0.0073
     31 C          60.0627   85.9264    8.1593 C.ar    1  UNL1       -0.0015
     32 C          59.2389   86.7778    7.2394 C.ar    1  UNL1        0.0203
     33 C          59.2224   88.2679    7.4104 C.ar    1  UNL1        0.0985
     34 N          60.0296   88.9066    8.5015 N.ar    1  UNL1       -0.2471
     35 C          60.8534   88.0552    9.4214 C.ar    1  UNL1        0.0695
@<TRIPOS>BOND
     1    24    25    1
     2    25    23    1
     3     1    23    1
     4     1     2    1
     5     2     3    1
     6     3     4   ar
     7     4     5   ar
     8     5     6   ar
     9     6     7   ar
    10     7     8   ar
    11     8    12    1
    12    14    12    1
    13    14    15    1
    14    15    16    1
    15    16    17    1
    16    17    18    1
    17    17    19    1
    18    19    20    1
    19     4     9    1
    20     9    10    1
    21    26    25    1
    22    26    27    1
    23    27    28    1
    24    28    29    1
    25    29    30    1
    26    30    31   ar
    27    31    32   ar
    28    32    33   ar
    29    33    34   ar
    30    34    35   ar
    31    10     1    1
    32    35    26    1
    33     8     3   ar
    34    20    14    1
    35    35    30   ar
    36    12    13    1
    37    18    21    1
    38    18    22    1
    39    10    11    1
@<TRIPOS>MOLECULE
*****
 35 39 0 0 0
SMALL
GASTEIGER

@<TRIPOS>ATOM
      1 C          64.0385   86.3180   14.8227 C.3     1  UNL1        0.0749
      2 C          63.8530   85.6756   13.4800 C.3     1  UNL1        0.0444
      3 C          63.2390   84.3107   13.3801 C.ar    1  UNL1       -0.0103
      4 C          62.8105   83.5882   14.6228 C.ar    1  UNL1       -0.0091
      5 C          62.1964   82.2233   14.5228 C.ar    1  UNL1       -0.0032
      6 C          62.0109   81.5808   13.1802 C.ar    1  UNL1        0.0010
      7 C          62.4394   82.3033   11.9374 C.ar    1  UNL1        0.0140
      8 C          63.0534   83.6682   12.0373 C.ar    1  UNL1        0.0403
      9 C          62.9960   84.2306   15.9655 C.3     1  UNL1        0.0954
     10 N          63.6100   85.5955   16.0654 N.3     1  UNL1       -0.2934
     11 H          64.4387   85.5033   16.6529 H       1  UNL1        0.1236
     12 N          63.4819   84.3906   10.7946 N.pl3   1  UNL1       -0.3343
     13 H          64.4171   84.3369   10.4916 H       1  UNL1        0.1468
     14 C          62.4856   85.1950   10.0134 C.3     1  UNL1        0.0691
     15 C          62.4669   85.1158    8.5156 C.3     1  UNL1        0.0208
     16 C          61.4705   85.9202    7.7344 C.3     1  UNL1        0.0172
     17 C          60.4928   86.8037    8.4510 C.3     1  UNL1        0.0509
     18 N          59.4965   87.6080    7.6698 N.3     1  UNL1       -0.3222
     19 C          60.5115   86.8828    9.9488 C.3     1  UNL1        0.0172
     20 C          61.5078   86.0785   10.7300 C.3     1  UNL1        0.0208
     21 H          59.6257   87.4340    6.6731 H       1  UNL1        0.1188
     22 H          59.6345   88.6001    7.8624 H       1  UNL1        0.1188
     23 C          64.6525   87.6830   14.9226 C.3     1  UNL1        0.0886
     24 C          62.9456   89.3395   15.9677 C.3     1  UNL1        0.0899
     25 N          63.7892   88.9041   14.8063 N.3     1  UNL1       -0.2667
     26 C          63.7695   89.6897   13.5287 C.3     1  UNL1        0.0978
     27 C          62.9028   89.2451   12.3881 C.3     1  UNL1        0.0224
     28 C          62.8831   90.0308   11.1105 C.3     1  UNL1        0.0065
     29 C          63.7301   91.2611   10.9734 C.3     1  UNL1        0.0277
     30 C          64.5969   91.7058   12.1141 C.ar    1  UNL1       -0.0073
     31 C          65.4439   92.9361   11.9770 C.ar    1  UNL1       -0.0015
     32 C          66.3107   93.3807   13.1176 C.ar    1  UNL1        0.0203
     33 C          66.3304   92.5950   14.3953 C.ar    1  UNL1        0.0985
     34 N          65.4834   91.3647   14.5323 N.ar    1  UNL1       -0.2471
     35 C          64.6166   90.9201   13.3917 C.ar    1  UNL1        0.0695
@<TRIPOS>BOND
     1    24    25    1
     2    25    23    1
     3     1    23    1
     4     1     2    1
     5     2     3    1
     6     3     4   ar
     7     4     5   ar
     8     5     6   ar
     9     6     7   ar
    10     7     8   ar
    11     8    12    1
    12    14    12    1
    13    14    15    1
    14    15    16    1
    15    16    17    1
    16    17    18    1
    17    17    19    1
    18    19    20    1
    19     4     9    1
    20     9    10    1
    21    26    25    1
    22    26    27    1
    23    27    28    1
    24    28    29    1
    25    29    30    1
    26    30    31   ar
    27    31    32   ar
    28    32    33   ar
    29    33    34   ar
    30    34    35   ar
    31    10     1    1
    32    35    26    1
    33     8     3   ar
    34    20    14    1
    35    35    30   ar
    36    12    13    1
    37    18    21    1
    38    18    22    1
    39    10    11    1
@<TRIPOS>MOLECULE
*****
 35 39 0 0 0
SMALL
GASTEIGER

@<TRIPOS>ATOM
      1 C          64.1142   86.1455   14.9016 C.3     1  UNL1        0.0749
      2 C          63.9537   85.4744   13.5698 C.3     1  UNL1        0.0444
      3 C          63.2734   84.1406   13.4792 C.ar    1  UNL1       -0.0103
      4 C          62.7536   83.4780   14.7204 C.ar    1  UNL1       -0.0091
      5 C          62.0733   82.1442   14.6298 C.ar    1  UNL1       -0.0032
      6 C          61.9128   81.4731   13.2979 C.ar    1  UNL1        0.0010
      7 C          62.4326   82.1357   12.0567 C.ar    1  UNL1        0.0140
      8 C          63.1129   83.4695   12.1473 C.ar    1  UNL1        0.0403
      9 C          62.9142   84.1491   16.0523 C.3     1  UNL1        0.0954
     10 N          63.5945   85.4828   16.1428 N.3     1  UNL1       -0.2934
     11 H          64.3907   85.3652   16.7694 H       1  UNL1        0.1236
     12 N          63.6326   84.1322   10.9060 N.pl3   1  UNL1       -0.3343
     13 H          64.5908   84.0818   10.6855 H       1  UNL1        0.1468
     14 C          62.6926   84.8715   10.0008 C.3     1  UNL1        0.0691
     15 C          62.8856   84.8184    8.5142 C.3     1  UNL1        0.0208
     16 C          61.9455   85.5578    7.6089 C.3     1  UNL1        0.0172
     17 C          60.8124   86.3503    8.1902 C.3     1  UNL1        0.0509
     18 N          59.8723   87.0897    7.2849 N.3     1  UNL1       -0.3222
     19 C          60.6194   86.4035    9.6768 C.3     1  UNL1        0.0172
     20 C          61.5594   85.6641   10.5821 C.3     1  UNL1        0.0208
     21 H          60.1501   86.9443    6.3143 H       1  UNL1        0.1188
     22 H          59.9042   88.0858    7.5021 H       1  UNL1        0.1188
     23 C          64.7946   87.4793   14.9922 C.3     1  UNL1        0.0886
     24 C          62.8253   88.8708   15.9596 C.3     1  UNL1        0.0899
     25 N          63.9786   88.7378   15.0096 N.3     1  UNL1       -0.2667
     26 C          64.3158   89.8632   14.0771 C.3     1  UNL1        0.0978
     27 C          65.3940   90.8408   14.4404 C.3     1  UNL1        0.0224
     28 C          65.7312   91.9662   13.5079 C.3     1  UNL1        0.0065
     29 C          64.9903   92.1142   12.2121 C.3     1  UNL1        0.0277
     30 C          63.9121   91.1367   11.8488 C.ar    1  UNL1       -0.0073
     31 C          63.1711   91.2846   10.5530 C.ar    1  UNL1       -0.0015
     32 C          62.0930   90.3071   10.1897 C.ar    1  UNL1        0.0203
     33 C          61.7558   89.1816   11.1223 C.ar    1  UNL1        0.0985
     34 N          62.4967   89.0337   12.4180 N.ar    1  UNL1       -0.2471
     35 C          63.5748   90.0112   12.7813 C.ar    1  UNL1        0.0695
@<TRIPOS>BOND
     1    24    25    1
     2    25    23    1
     3     1    23    1
     4     1     2    1
     5     2     3    1
     6     3     4   ar
     7     4     5   ar
     8     5     6   ar
     9     6     7   ar
    10     7     8   ar
    11     8    12    1
    12    14    12    1
    13    14    15    1
    14    15    16    1
    15    16    17    1
    16    17    18    1
    17    17    19    1
    18    19    20    1
    19     4     9    1
    20     9    10    1
    21    26    25    1
    22    26    27    1
    23    27    28    1
    24    28    29    1
    25    29    30    1
    26    30    31   ar
    27    31    32   ar
    28    32    33   ar
    29    33    34   ar
    30    34    35   ar
    31    10     1    1
    32    35    26    1
    33     8     3   ar
    34    20    14    1
    35    35    30   ar
    36    12    13    1
    37    18    21    1
    38    18    22    1
    39    10    11    1
@<TRIPOS>MOLECULE
*****
 35 39 0 0 0
SMALL
GASTEIGER

@<TRIPOS>ATOM
      1 C          61.9971   90.9383   11.0290 C.3     1  UNL1        0.0749
      2 C          62.5228   90.7874   12.4257 C.3     1  UNL1        0.0444
      3 C          63.9190   91.2269   12.7531 C.ar    1  UNL1       -0.0103
      4 C          64.7896   91.8172   11.6837 C.ar    1  UNL1       -0.0091
      5 C          66.1860   92.2567   12.0111 C.ar    1  UNL1       -0.0032
      6 C          66.7117   92.1058   13.4078 C.ar    1  UNL1        0.0010
      7 C          65.8411   91.5155   14.4772 C.ar    1  UNL1        0.0140
      8 C          64.4448   91.0760   14.1498 C.ar    1  UNL1        0.0403
      9 C          64.2639   91.9681   10.2870 C.3     1  UNL1        0.0954
     10 N          62.8677   91.5286    9.9596 N.3     1  UNL1       -0.2934
     11 H          62.9447   90.8279    9.2225 H       1  UNL1        0.1236
     12 N          63.5742   90.4856   15.2192 N.pl3   1  UNL1       -0.3343
     13 H          62.9569   91.0619   15.7252 H       1  UNL1        0.1468
     14 C          63.6442   89.0173   15.5176 C.3     1  UNL1        0.0691
     15 C          64.3655   88.0950   14.5800 C.3     1  UNL1        0.0208
     16 C          64.4354   86.6266   14.8785 C.3     1  UNL1        0.0172
     17 C          63.7841   86.0806   16.1144 C.3     1  UNL1        0.0509
     18 N          63.8540   84.6123   16.4128 N.3     1  UNL1       -0.3222
     19 C          63.0627   87.0029   17.0520 C.3     1  UNL1        0.0172
     20 C          62.9928   88.4713   16.7536 C.3     1  UNL1        0.0208
     21 H          64.3780   84.1402   15.6759 H       1  UNL1        0.1188
     22 H          62.9098   84.2291   16.4576 H       1  UNL1        0.1188
     23 C          60.6007   90.4988   10.7016 C.3     1  UNL1        0.0886
     24 C          59.4489   88.7837   12.2770 C.3     1  UNL1        0.0899
     25 N          60.1679   89.0934   10.9975 N.3     1  UNL1       -0.2667
     26 C          60.4542   87.9977   10.0139 C.3     1  UNL1        0.0978
     27 C          59.8533   88.0468    8.6405 C.3     1  UNL1        0.0224
     28 C          60.1396   86.9511    7.6569 C.3     1  UNL1        0.0065
     29 C          61.0268   85.8062    8.0468 C.3     1  UNL1        0.0277
     30 C          61.6278   85.7570    9.4204 C.ar    1  UNL1       -0.0073
     31 C          62.5151   84.6122    9.8103 C.ar    1  UNL1       -0.0015
     32 C          63.1160   84.5631   11.1837 C.ar    1  UNL1        0.0203
     33 C          62.8297   85.6588   12.1673 C.ar    1  UNL1        0.0985
     34 N          61.9425   86.8037   11.7774 N.ar    1  UNL1       -0.2471
     35 C          61.3415   86.8528   10.4039 C.ar    1  UNL1        0.0695
@<TRIPOS>BOND
     1    24    25    1
     2    25    23    1
     3     1    23    1
     4     1     2    1
     5     2     3    1
     6     3     4   ar
     7     4     5   ar
     8     5     6   ar
     9     6     7   ar
    10     7     8   ar
    11     8    12    1
    12    14    12    1
    13    14    15    1
    14    15    16    1
    15    16    17    1
    16    17    18    1
    17    17    19    1
    18    19    20    1
    19     4     9    1
    20     9    10    1
    21    26    25    1
    22    26    27    1
    23    27    28    1
    24    28    29    1
    25    29    30    1
    26    30    31   ar
    27    31    32   ar
    28    32    33   ar
    29    33    34   ar
    30    34    35   ar
    31    10     1    1
    32    35    26    1
    33     8     3   ar
    34    20    14    1
    35    35    30   ar
    36    12    13    1
    37    18    21    1
    38    18    22    1
    39    10    11    1
@<TRIPOS>MOLECULE
*****
 35 39 0 0 0
SMALL
GASTEIGER

@<TRIPOS>ATOM
      1 C          63.4325   90.8841   13.6925 C.3     1  UNL1        0.0749
      2 C          64.7371   91.2923   13.0749 C.3     1  UNL1        0.0444
      3 C          65.8474   91.8094   13.9408 C.ar    1  UNL1       -0.0103
      4 C          65.6532   91.9183   15.4241 C.ar    1  UNL1       -0.0091
      5 C          66.7636   92.4355   16.2900 C.ar    1  UNL1       -0.0032
      6 C          68.0682   92.8436   15.6725 C.ar    1  UNL1        0.0010
      7 C          68.2624   92.7347   14.1891 C.ar    1  UNL1        0.0140
      8 C          67.1521   92.2176   13.3232 C.ar    1  UNL1        0.0403
      9 C          64.3486   91.5102   16.0417 C.3     1  UNL1        0.0954
     10 N          63.2382   90.9931   15.1758 N.3     1  UNL1       -0.2934
     11 H          62.4385   91.6087   15.3236 H       1  UNL1        0.1236
     12 N          67.3464   92.1086   11.8399 N.pl3   1  UNL1       -0.3343
     13 H          67.6452   91.2583   11.4437 H       1  UNL1        0.1468
     14 C          67.0854   93.2951   10.9601 C.3     1  UNL1        0.0691
     15 C          67.7249   93.3799    9.6059 C.3     1  UNL1        0.0208
     16 C          67.4638   94.5665    8.7262 C.3     1  UNL1        0.0172
     17 C          66.5633   95.6683    9.2006 C.3     1  UNL1        0.0509
     18 N          66.3022   96.8548    8.3209 N.3     1  UNL1       -0.3222
     19 C          65.9238   95.5835   10.5548 C.3     1  UNL1        0.0172
     20 C          66.1848   94.3970   11.4346 C.3     1  UNL1        0.0208
     21 H          66.8131   96.7473    7.4446 H       1  UNL1        0.1188
     22 H          66.6129   97.7035    8.7937 H       1  UNL1        0.1188
     23 C          62.3221   90.3670   12.8266 C.3     1  UNL1        0.0886
     24 C          63.2552   90.7318   10.4294 C.3     1  UNL1        0.0899
     25 N          62.6241   89.8382   11.4558 N.3     1  UNL1       -0.2667
     26 C          62.2950   88.4159   11.1112 C.3     1  UNL1        0.0978
     27 C          62.9111   87.2932   11.8922 C.3     1  UNL1        0.0224
     28 C          62.5820   85.8709   11.5477 C.3     1  UNL1        0.0065
     29 C          61.6369   85.5713   10.4222 C.3     1  UNL1        0.0277
     30 C          61.0207   86.6940    9.6411 C.ar    1  UNL1       -0.0073
     31 C          60.0755   86.3944    8.5156 C.ar    1  UNL1       -0.0015
     32 C          59.4595   87.5170    7.7346 C.ar    1  UNL1        0.0203
     33 C          59.7885   88.9394    8.0792 C.ar    1  UNL1        0.0985
     34 N          60.7337   89.2390    9.2047 N.ar    1  UNL1       -0.2471
     35 C          61.3498   88.1163    9.9857 C.ar    1  UNL1        0.0695
@<TRIPOS>BOND
     1    24    25    1
     2    25    23    1
     3     1    23    1
     4     1     2    1
     5     2     3    1
     6     3     4   ar
     7     4     5   ar
     8     5     6   ar
     9     6     7   ar
    10     7     8   ar
    11     8    12    1
    12    14    12    1
    13    14    15    1
    14    15    16    1
    15    16    17    1
    16    17    18    1
    17    17    19    1
    18    19    20    1
    19     4     9    1
    20     9    10    1
    21    26    25    1
    22    26    27    1
    23    27    28    1
    24    28    29    1
    25    29    30    1
    26    30    31   ar
    27    31    32   ar
    28    32    33   ar
    29    33    34   ar
    30    34    35   ar
    31    10     1    1
    32    35    26    1
    33     8     3   ar
    34    20    14    1
    35    35    30   ar
    36    12    13    1
    37    18    21    1
    38    18    22    1
    39    10    11    1
@<TRIPOS>MOLECULE
*****
 35 39 0 0 0
SMALL
GASTEIGER

@<TRIPOS>ATOM
      1 C          63.8017   90.8587   14.0968 C.3     1  UNL1        0.0749
      2 C          65.1403   91.1111   13.4690 C.3     1  UNL1        0.0444
      3 C          66.2339   91.7555   14.2682 C.ar    1  UNL1       -0.0103
      4 C          65.9889   92.1475   15.6951 C.ar    1  UNL1       -0.0091
      5 C          67.0826   92.7920   16.4943 C.ar    1  UNL1       -0.0032
      6 C          68.4212   93.0444   15.8665 C.ar    1  UNL1        0.0010
      7 C          68.6663   92.6523   14.4395 C.ar    1  UNL1        0.0140
      8 C          67.5727   92.0079   13.6404 C.ar    1  UNL1        0.0403
      9 C          64.6502   91.8951   16.3230 C.3     1  UNL1        0.0954
     10 N          63.5566   91.2507   15.5238 N.3     1  UNL1       -0.2934
     11 H          62.7719   91.9023   15.5195 H       1  UNL1        0.1236
     12 N          67.8178   91.6159   12.2134 N.pl3   1  UNL1       -0.3343
     13 H          68.1724   90.7220   12.0024 H       1  UNL1        0.1468
     14 C          67.5225   92.5857   11.1079 C.3     1  UNL1        0.0691
     15 C          68.2774   92.5011    9.8144 C.3     1  UNL1        0.0208
     16 C          67.9821   93.4710    8.7089 C.3     1  UNL1        0.0172
     17 C          66.9319   94.5254    8.8968 C.3     1  UNL1        0.0509
     18 N          66.6367   95.4952    7.7912 N.3     1  UNL1       -0.3222
     19 C          66.1770   94.6100   10.1902 C.3     1  UNL1        0.0172
     20 C          66.4723   93.6401   11.2957 C.3     1  UNL1        0.0208
     21 H          67.2379   95.2934    6.9924 H       1  UNL1        0.1188
     22 H          66.8118   96.4458    8.1171 H       1  UNL1        0.1188
     23 C          62.7080   90.2142   13.2977 C.3     1  UNL1        0.0886
     24 C          63.4914   91.0770   10.9756 C.3     1  UNL1        0.0899
     25 N          62.8831   89.9994   11.8235 N.3     1  UNL1       -0.2667
     26 C          62.4499   88.7071   11.1972 C.3     1  UNL1        0.0978
     27 C          61.6901   88.7180    9.9040 C.3     1  UNL1        0.0224
     28 C          61.2569   87.4256    9.2777 C.3     1  UNL1        0.0065
     29 C          61.5835   86.1224    9.9447 C.3     1  UNL1        0.0277
     30 C          62.3433   86.1115   11.2380 C.ar    1  UNL1       -0.0073
     31 C          62.6699   84.8083   11.9050 C.ar    1  UNL1       -0.0015
     32 C          63.4297   84.7974   13.1982 C.ar    1  UNL1        0.0203
     33 C          63.8629   86.0897   13.8245 C.ar    1  UNL1        0.0985
     34 N          63.5363   87.3929   13.1575 N.ar    1  UNL1       -0.2471
     35 C          62.7765   87.4038   11.8643 C.ar    1  UNL1        0.0695
@<TRIPOS>BOND
     1    24    25    1
     2    25    23    1
     3     1    23    1
     4     1     2    1
     5     2     3    1
     6     3     4   ar
     7     4     5   ar
     8     5     6   ar
     9     6     7   ar
    10     7     8   ar
    11     8    12    1
    12    14    12    1
    13    14    15    1
    14    15    16    1
    15    16    17    1
    16    17    18    1
    17    17    19    1
    18    19    20    1
    19     4     9    1
    20     9    10    1
    21    26    25    1
    22    26    27    1
    23    27    28    1
    24    28    29    1
    25    29    30    1
    26    30    31   ar
    27    31    32   ar
    28    32    33   ar
    29    33    34   ar
    30    34    35   ar
    31    10     1    1
    32    35    26    1
    33     8     3   ar
    34    20    14    1
    35    35    30   ar
    36    12    13    1
    37    18    21    1
    38    18    22    1
    39    10    11    1
@<TRIPOS>MOLECULE
*****
 35 39 0 0 0
SMALL
GASTEIGER

@<TRIPOS>ATOM
      1 C          63.1874   88.9424   12.8784 C.3     1  UNL1        0.0749
      2 C          63.1346   87.6914   12.0526 C.3     1  UNL1        0.0444
      3 C          62.0419   87.5054   11.0420 C.ar    1  UNL1       -0.0103
      4 C          61.0019   88.5705   10.8573 C.ar    1  UNL1       -0.0091
      5 C          59.9091   88.3844    9.8467 C.ar    1  UNL1       -0.0032
      6 C          59.8564   87.1334    9.0209 C.ar    1  UNL1        0.0010
      7 C          60.8963   86.0683    9.2056 C.ar    1  UNL1        0.0140
      8 C          61.9891   86.2543   10.2161 C.ar    1  UNL1        0.0403
      9 C          61.0547   89.8215   11.6832 C.3     1  UNL1        0.0954
     10 N          62.1475   90.0075   12.6937 N.3     1  UNL1       -0.2934
     11 H          61.6935   90.1357   13.5981 H       1  UNL1        0.1236
     12 N          63.0290   85.1892   10.4008 N.pl3   1  UNL1       -0.3343
     13 H          63.8201   85.1668    9.8152 H       1  UNL1        0.1468
     14 C          62.8638   84.1583   11.4778 C.3     1  UNL1        0.0691
     15 C          62.8689   82.6999   11.1271 C.3     1  UNL1        0.0208
     16 C          62.7036   81.6690   12.2042 C.3     1  UNL1        0.0172
     17 C          62.5332   82.0965   13.6318 C.3     1  UNL1        0.0509
     18 N          62.3679   81.0656   14.7087 N.3     1  UNL1       -0.3222
     19 C          62.5280   83.5549   13.9824 C.3     1  UNL1        0.0172
     20 C          62.6933   84.5858   12.9055 C.3     1  UNL1        0.0208
     21 H          62.3954   80.1339   14.2946 H       1  UNL1        0.1188
     22 H          61.4721   81.2034   15.1767 H       1  UNL1        0.1188
     23 C          64.2802   89.1285   13.8890 C.3     1  UNL1        0.0886
     24 C          63.2398   90.2898   15.9673 C.3     1  UNL1        0.0899
     25 N          64.2315   90.2859   14.8418 N.3     1  UNL1       -0.2667
     26 C          65.1745   91.4396   14.6692 C.3     1  UNL1        0.0978
     27 C          65.9814   91.9296   15.8349 C.3     1  UNL1        0.0224
     28 C          66.9244   93.0833   15.6623 C.3     1  UNL1        0.0065
     29 C          67.0605   93.7470   14.3240 C.3     1  UNL1        0.0277
     30 C          66.2537   93.2569   13.1583 C.ar    1  UNL1       -0.0073
     31 C          66.3898   93.9206   11.8200 C.ar    1  UNL1       -0.0015
     32 C          65.5830   93.4305   10.6543 C.ar    1  UNL1        0.0203
     33 C          64.6400   92.2769   10.8269 C.ar    1  UNL1        0.0985
     34 N          64.5038   91.6132   12.1652 N.ar    1  UNL1       -0.2471
     35 C          65.3107   92.1033   13.3309 C.ar    1  UNL1        0.0695
@<TRIPOS>BOND
     1    24    25    1
     2    25    23    1
     3     1    23    1
     4     1     2    1
     5     2     3    1
     6     3     4   ar
     7     4     5   ar
     8     5     6   ar
     9     6     7   ar
    10     7     8   ar
    11     8    12    1
    12    14    12    1
    13    14    15    1
    14    15    16    1
    15    16    17    1
    16    17    18    1
    17    17    19    1
    18    19    20    1
    19     4     9    1
    20     9    10    1
    21    26    25    1
    22    26    27    1
    23    27    28    1
    24    28    29    1
    25    29    30    1
    26    30    31   ar
    27    31    32   ar
    28    32    33   ar
    29    33    34   ar
    30    34    35   ar
    31    10     1    1
    32    35    26    1
    33     8     3   ar
    34    20    14    1
    35    35    30   ar
    36    12    13    1
    37    18    21    1
    38    18    22    1
    39    10    11    1
@<TRIPOS>MOLECULE
*****
 35 39 0 0 0
SMALL
GASTEIGER

@<TRIPOS>ATOM
      1 C          61.4498   89.2831   11.3517 C.3     1  UNL1        0.0749
      2 C          62.0665   87.9655   10.9863 C.3     1  UNL1        0.0444
      3 C          61.5664   87.2091    9.7915 C.ar    1  UNL1       -0.0103
      4 C          60.4496   87.7702    8.9621 C.ar    1  UNL1       -0.0091
      5 C          59.9496   87.0137    7.7672 C.ar    1  UNL1       -0.0032
      6 C          60.5663   85.6961    7.4018 C.ar    1  UNL1        0.0010
      7 C          61.6831   85.1350    8.2312 C.ar    1  UNL1        0.0140
      8 C          62.1832   85.8914    9.4260 C.ar    1  UNL1        0.0403
      9 C          59.8329   89.0878    9.3275 C.3     1  UNL1        0.0954
     10 N          60.3330   89.8442   10.5224 N.3     1  UNL1       -0.2934
     11 H          59.5361   89.9684   11.1469 H       1  UNL1        0.1236
     12 N          63.3000   85.3303   10.2554 N.pl3   1  UNL1       -0.3343
     13 H          64.2306   85.5927   10.0700 H       1  UNL1        0.1468
     14 C          62.9989   84.3694   11.3672 C.3     1  UNL1        0.0691
     15 C          62.8992   82.9001   11.0822 C.3     1  UNL1        0.0208
     16 C          62.5981   81.9393   12.1941 C.3     1  UNL1        0.0172
     17 C          62.3968   82.4477   13.5908 C.3     1  UNL1        0.0509
     18 N          62.0957   81.4869   14.7026 N.3     1  UNL1       -0.3222
     19 C          62.4965   83.9170   13.8757 C.3     1  UNL1        0.0172
     20 C          62.7976   84.8779   12.7640 C.3     1  UNL1        0.0208
     21 H          62.0650   80.5371   14.3321 H       1  UNL1        0.1188
     22 H          61.1934   81.7192   15.1177 H       1  UNL1        0.1188
     23 C          61.9499   90.0396   12.5466 C.3     1  UNL1        0.0886
     24 C          64.0158   88.9083   13.6431 C.3     1  UNL1        0.0899
     25 N          63.4142   90.0455   12.8716 N.3     1  UNL1       -0.2667
     26 C          64.2770   91.1884   12.4252 C.3     1  UNL1        0.0978
     27 C          64.2885   91.6007   10.9831 C.3     1  UNL1        0.0224
     28 C          65.1513   92.7436   10.5367 C.3     1  UNL1        0.0065
     29 C          66.0026   93.4742   11.5324 C.3     1  UNL1        0.0277
     30 C          65.9911   93.0619   12.9746 C.ar    1  UNL1       -0.0073
     31 C          66.8424   93.7925   13.9703 C.ar    1  UNL1       -0.0015
     32 C          66.8309   93.3802   15.4125 C.ar    1  UNL1        0.0203
     33 C          65.9681   92.2373   15.8589 C.ar    1  UNL1        0.0985
     34 N          65.1168   91.5067   14.8632 N.ar    1  UNL1       -0.2471
     35 C          65.1283   91.9190   13.4210 C.ar    1  UNL1        0.0695
@<TRIPOS>BOND
     1    24    25    1
     2    25    23    1
     3     1    23    1
     4     1     2    1
     5     2     3    1
     6     3     4   ar
     7     4     5   ar
     8     5     6   ar
     9     6     7   ar
    10     7     8   ar
    11     8    12    1
    12    14    12    1
    13    14    15    1
    14    15    16    1
    15    16    17    1
    16    17    18    1
    17    17    19    1
    18    19    20    1
    19     4     9    1
    20     9    10    1
    21    26    25    1
    22    26    27    1
    23    27    28    1
    24    28    29    1
    25    29    30    1
    26    30    31   ar
    27    31    32   ar
    28    32    33   ar
    29    33    34   ar
    30    34    35   ar
    31    10     1    1
    32    35    26    1
    33     8     3   ar
    34    20    14    1
    35    35    30   ar
    36    12    13    1
    37    18    21    1
    38    18    22    1
    39    10    11    1
@<TRIPOS>MOLECULE
*****
 35 39 0 0 0
SMALL
GASTEIGER

@<TRIPOS>ATOM
      1 C          64.2149   91.1970   12.2764 C.3     1  UNL1        0.0749
      2 C          63.9816   89.7602   12.6382 C.3     1  UNL1        0.0444
      3 C          63.1253   88.8955   11.7613 C.ar    1  UNL1       -0.0103
      4 C          62.5023   89.4676   10.5226 C.ar    1  UNL1       -0.0091
      5 C          61.6459   88.6029    9.6457 C.ar    1  UNL1       -0.0032
      6 C          61.4126   87.1660   10.0075 C.ar    1  UNL1        0.0010
      7 C          62.0356   86.5938   11.2463 C.ar    1  UNL1        0.0140
      8 C          62.8920   87.4585   12.1232 C.ar    1  UNL1        0.0403
      9 C          62.7356   90.9045   10.1607 C.3     1  UNL1        0.0954
     10 N          63.5919   91.7692   11.0376 N.3     1  UNL1       -0.2934
     11 H          63.0112   92.5532   11.3352 H       1  UNL1        0.1236
     12 N          63.5150   86.8864   13.3619 N.pl3   1  UNL1       -0.3343
     13 H          63.9241   87.4844   14.0284 H       1  UNL1        0.1468
     14 C          63.5148   85.4031   13.5851 C.3     1  UNL1        0.0691
     15 C          62.8339   84.8261   14.7907 C.3     1  UNL1        0.0208
     16 C          62.8338   83.3428   15.0139 C.3     1  UNL1        0.0172
     17 C          63.5144   82.4365   14.0314 C.3     1  UNL1        0.0509
     18 N          63.5142   80.9532   14.2546 N.3     1  UNL1       -0.3222
     19 C          64.1952   83.0134   12.8258 C.3     1  UNL1        0.0172
     20 C          64.1954   84.4967   12.6026 C.3     1  UNL1        0.0208
     21 H          63.0102   80.7389   15.1151 H       1  UNL1        0.1188
     22 H          64.4754   80.6208   14.3318 H       1  UNL1        0.1188
     23 C          65.0713   92.0618   13.1533 C.3     1  UNL1        0.0886
     24 C          67.5214   91.8264   13.9850 C.3     1  UNL1        0.0899
     25 N          66.5456   92.1630   12.8965 N.3     1  UNL1       -0.2667
     26 C          67.0444   92.6009   11.5513 C.3     1  UNL1        0.0978
     27 C          67.7548   91.6251   10.6608 C.3     1  UNL1        0.0224
     28 C          68.2536   92.0629    9.3156 C.3     1  UNL1        0.0065
     29 C          68.0419   93.4766    8.8609 C.3     1  UNL1        0.0277
     30 C          67.3314   94.4524    9.7515 C.ar    1  UNL1       -0.0073
     31 C          67.1198   95.8661    9.2968 C.ar    1  UNL1       -0.0015
     32 C          66.4093   96.8419   10.1873 C.ar    1  UNL1        0.0203
     33 C          65.9106   96.4040   11.5325 C.ar    1  UNL1        0.0985
     34 N          66.1223   94.9904   11.9872 N.ar    1  UNL1       -0.2471
     35 C          66.8327   94.0146   11.0967 C.ar    1  UNL1        0.0695
@<TRIPOS>BOND
     1    24    25    1
     2    25    23    1
     3     1    23    1
     4     1     2    1
     5     2     3    1
     6     3     4   ar
     7     4     5   ar
     8     5     6   ar
     9     6     7   ar
    10     7     8   ar
    11     8    12    1
    12    14    12    1
    13    14    15    1
    14    15    16    1
    15    16    17    1
    16    17    18    1
    17    17    19    1
    18    19    20    1
    19     4     9    1
    20     9    10    1
    21    26    25    1
    22    26    27    1
    23    27    28    1
    24    28    29    1
    25    29    30    1
    26    30    31   ar
    27    31    32   ar
    28    32    33   ar
    29    33    34   ar
    30    34    35   ar
    31    10     1    1
    32    35    26    1
    33     8     3   ar
    34    20    14    1
    35    35    30   ar
    36    12    13    1
    37    18    21    1
    38    18    22    1
    39    10    11    1
