@<TRIPOS>MOLECULE
*****
 33 36 0 0 0
SMALL
GASTEIGER

@<TRIPOS>ATOM
      1 C          62.9990   89.2909   12.2302 C.ar    1  UNL1        0.1581
      2 C          63.9395   89.5766   13.3634 C.ar    1  UNL1        0.0694
      3 C          64.8688   90.7517   13.2886 C.ar    1  UNL1        0.1620
      4 F          65.8092   91.0375   14.4216 F       1  UNL1       -0.2026
      5 C          64.8576   91.6411   12.0806 C.ar    1  UNL1        0.1535
      6 C          63.9171   91.3553   10.9476 C.ar    1  UNL1        0.0370
      7 C          62.9878   90.1802   11.0224 C.ar    1  UNL1        0.0936
      8 CL         62.0474   89.8945    9.8892 Cl      1  UNL1       -0.0790
      9 S          65.7869   92.8161   12.0058 S.O2    1  UNL1        0.0769
     10 O          65.3606   93.2408   13.3799 O.2     1  UNL1       -0.1498
     11 O          66.2132   92.3915   10.6318 O.2     1  UNL1       -0.1498
     12 N          66.7162   93.9912   11.9310 N.pl3   1  UNL1       -0.1987
     13 H          67.3849   94.1358   12.6389 H       1  UNL1        0.1753
     14 C          66.6266   94.9460   10.7776 C.ar    1  UNL1        0.1503
     15 C          65.4512   95.8703   10.6587 C.ar    1  UNL1        0.0563
     16 C          65.3616   96.8251    9.5053 C.ar    1  UNL1        0.1036
     17 N          66.4474   96.8556    8.4708 N.ar    1  UNL1       -0.2223
     18 C          67.6228   95.9313    8.5898 C.ar    1  UNL1        0.2001
     19 N          67.7124   94.9766    9.7431 N.ar    1  UNL1       -0.2077
     20 O          62.0697   88.1158   12.3050 O.3     1  UNL1       -0.4525
     21 C          62.3074   85.7921   11.1676 C.ar    1  UNL1        0.0527
     22 C          62.8600   84.3976   11.1647 C.ar    1  UNL1        0.0159
     23 C          63.7273   83.9323   12.2966 C.ar    1  UNL1        0.0579
     24 CL         64.2799   82.5377   12.2938 Cl      1  UNL1       -0.0822
     25 C          64.0421   84.8615   13.4313 C.ar    1  UNL1        0.0145
     26 C          63.4896   86.2559   13.4341 C.ar    1  UNL1        0.0384
     27 C          62.6223   86.7213   12.3022 C.ar    1  UNL1        0.1467
     28 C          62.8317   85.2359    7.9949 C.3     1  UNL1        0.1537
     29 N          61.6810   86.0018    8.5774 N.ar    1  UNL1       -0.2487
     30 N          60.5693   86.6466    7.8039 N.ar    1  UNL1       -0.1676
     31 C          59.6412   87.3007    8.7841 C.ar    1  UNL1        0.1217
     32 C          60.1794   87.0603   10.1634 C.ar    1  UNL1        0.0413
     33 C          61.4400   86.2575   10.0357 C.ar    1  UNL1        0.0825
@<TRIPOS>BOND
     1    28    29    1
     2    29    30   ar
     3    30    31   ar
     4    31    32   ar
     5    32    33   ar
     6    33    21    1
     7    21    22   ar
     8    22    23   ar
     9    23    24    1
    10    23    25   ar
    11    25    26   ar
    12    26    27   ar
    13    27    20    1
    14    20     1    1
    15     1     2   ar
    16     2     3   ar
    17     3     4    1
    18     3     5   ar
    19     5     9    1
    20     9    10    2
    21     9    11    2
    22     9    12    1
    23    12    14    1
    24    14    15   ar
    25    15    16   ar
    26    16    17   ar
    27    17    18   ar
    28    18    19   ar
    29     5     6   ar
    30     6     7   ar
    31     7     8    1
    32    33    29   ar
    33    27    21   ar
    34     7     1   ar
    35    19    14   ar
    36    12    13    1
@<TRIPOS>MOLECULE
*****
 33 36 0 0 0
SMALL
GASTEIGER

@<TRIPOS>ATOM
      1 C          63.1075   89.3417   12.3201 C.ar    1  UNL1        0.1581
      2 C          63.0083   90.2697   11.1457 C.ar    1  UNL1        0.0694
      3 C          63.8981   91.4745   11.0647 C.ar    1  UNL1        0.1620
      4 F          63.7989   92.4025    9.8904 F       1  UNL1       -0.2026
      5 C          64.8870   91.7515   12.1581 C.ar    1  UNL1        0.1535
      6 C          64.9861   90.8235   13.3324 C.ar    1  UNL1        0.0370
      7 C          64.0964   89.6187   13.4134 C.ar    1  UNL1        0.0936
      8 CL         64.1955   88.6907   14.5878 Cl      1  UNL1       -0.0790
      9 S          65.7768   92.9564   12.0770 S.O2    1  UNL1        0.0769
     10 O          65.4133   93.3196   13.4863 O.2     1  UNL1       -0.1498
     11 O          66.1403   92.5932   10.6678 O.2     1  UNL1       -0.1498
     12 N          66.6665   94.1612   11.9960 N.pl3   1  UNL1       -0.1987
     13 H          67.2877   94.3649   12.7322 H       1  UNL1        0.1753
     14 C          66.6099   95.0559   10.7933 C.ar    1  UNL1        0.1503
     15 C          65.4318   95.9612   10.5868 C.ar    1  UNL1        0.0563
     16 C          65.3752   96.8558    9.3842 C.ar    1  UNL1        0.1036
     17 N          66.4966   96.8451    8.3880 N.ar    1  UNL1       -0.2223
     18 C          67.6746   95.9399    8.5945 C.ar    1  UNL1        0.2001
     19 N          67.7313   95.0453    9.7971 N.ar    1  UNL1       -0.2077
     20 O          62.2177   88.1368   12.4012 O.3     1  UNL1       -0.4525
     21 C          61.8687   86.1523   10.7610 C.ar    1  UNL1        0.0527
     22 C          61.2519   85.5903    9.5146 C.ar    1  UNL1        0.0159
     23 C          60.3674   86.4507    8.6617 C.ar    1  UNL1        0.0579
     24 CL         59.7506   85.8886    7.4152 Cl      1  UNL1       -0.0822
     25 C          60.0997   87.8731    9.0554 C.ar    1  UNL1        0.0145
     26 C          60.7164   88.4352   10.3018 C.ar    1  UNL1        0.0384
     27 C          61.6009   87.5748   11.1546 C.ar    1  UNL1        0.1467
     28 C          63.7545   83.7050    9.7102 C.3     1  UNL1        0.1537
     29 N          63.6200   84.1671   11.1309 N.ar    1  UNL1       -0.2487
     30 N          64.3287   83.5853   12.3180 N.ar    1  UNL1       -0.1676
     31 C          63.8999   84.3506   13.5348 C.ar    1  UNL1        0.1217
     32 C          62.9262   85.4054   13.0996 C.ar    1  UNL1        0.0413
     33 C          62.7532   85.2919   11.6139 C.ar    1  UNL1        0.0825
@<TRIPOS>BOND
     1    28    29    1
     2    29    30   ar
     3    30    31   ar
     4    31    32   ar
     5    32    33   ar
     6    33    21    1
     7    21    22   ar
     8    22    23   ar
     9    23    24    1
    10    23    25   ar
    11    25    26   ar
    12    26    27   ar
    13    27    20    1
    14    20     1    1
    15     1     2   ar
    16     2     3   ar
    17     3     4    1
    18     3     5   ar
    19     5     9    1
    20     9    10    2
    21     9    11    2
    22     9    12    1
    23    12    14    1
    24    14    15   ar
    25    15    16   ar
    26    16    17   ar
    27    17    18   ar
    28    18    19   ar
    29     5     6   ar
    30     6     7   ar
    31     7     8    1
    32    33    29   ar
    33    27    21   ar
    34     7     1   ar
    35    19    14   ar
    36    12    13    1
@<TRIPOS>MOLECULE
*****
 33 36 0 0 0
SMALL
GASTEIGER

@<TRIPOS>ATOM
      1 C          62.7490   88.4417   12.1402 C.ar    1  UNL1        0.1581
      2 C          63.6949   88.7441   13.2644 C.ar    1  UNL1        0.0694
      3 C          64.4369   90.0474   13.2902 C.ar    1  UNL1        0.1620
      4 F          65.3827   90.3499   14.4144 F       1  UNL1       -0.2026
      5 C          64.2330   91.0484   12.1918 C.ar    1  UNL1        0.1535
      6 C          63.2871   90.7460   11.0676 C.ar    1  UNL1        0.0370
      7 C          62.5451   89.4426   11.0418 C.ar    1  UNL1        0.0936
      8 CL         61.5992   89.1402    9.9175 Cl      1  UNL1       -0.0790
      9 S          64.9750   92.3518   12.2176 S.O2    1  UNL1        0.0769
     10 O          64.8703   92.3817   13.7136 O.2     1  UNL1       -0.1498
     11 O          65.0796   92.3218   10.7215 O.2     1  UNL1       -0.1498
     12 N          65.7170   93.6552   12.2434 N.pl3   1  UNL1       -0.1987
     13 H          65.7952   94.1605   13.0847 H       1  UNL1        0.1753
     14 C          66.3397   94.1886   10.9873 C.ar    1  UNL1        0.1503
     15 C          65.7694   95.4088   10.3271 C.ar    1  UNL1        0.0563
     16 C          66.3921   95.9422    9.0711 C.ar    1  UNL1        0.1036
     17 N          67.5852   95.2555    8.4753 N.ar    1  UNL1       -0.2223
     18 C          68.1555   94.0353    9.1354 C.ar    1  UNL1        0.2001
     19 N          67.5327   93.5019   10.3914 N.ar    1  UNL1       -0.2077
     20 O          62.0070   87.1383   12.1144 O.3     1  UNL1       -0.4525
     21 C          63.3232   84.9145   12.3831 C.ar    1  UNL1        0.0527
     22 C          63.9606   83.7006   11.7748 C.ar    1  UNL1        0.0159
     23 C          63.9191   83.4965   10.2893 C.ar    1  UNL1        0.0579
     24 CL         64.5565   82.2825    9.6809 Cl      1  UNL1       -0.0822
     25 C          63.2402   84.5063    9.4122 C.ar    1  UNL1        0.0145
     26 C          62.6029   85.7203   10.0205 C.ar    1  UNL1        0.0384
     27 C          62.6444   85.9243   11.5060 C.ar    1  UNL1        0.1467
     28 C          61.7944   83.0878   14.6138 C.3     1  UNL1        0.1537
     29 N          62.6620   84.2790   14.8939 N.ar    1  UNL1       -0.2487
     30 N          62.9792   84.8397   16.2485 N.ar    1  UNL1       -0.1676
     31 C          63.8779   86.0258   16.0605 C.ar    1  UNL1        0.1217
     32 C          64.1162   86.1982   14.5896 C.ar    1  UNL1        0.0413
     33 C          63.3647   85.1186   13.8686 C.ar    1  UNL1        0.0825
@<TRIPOS>BOND
     1    28    29    1
     2    29    30   ar
     3    30    31   ar
     4    31    32   ar
     5    32    33   ar
     6    33    21    1
     7    21    22   ar
     8    22    23   ar
     9    23    24    1
    10    23    25   ar
    11    25    26   ar
    12    26    27   ar
    13    27    20    1
    14    20     1    1
    15     1     2   ar
    16     2     3   ar
    17     3     4    1
    18     3     5   ar
    19     5     9    1
    20     9    10    2
    21     9    11    2
    22     9    12    1
    23    12    14    1
    24    14    15   ar
    25    15    16   ar
    26    16    17   ar
    27    17    18   ar
    28    18    19   ar
    29     5     6   ar
    30     6     7   ar
    31     7     8    1
    32    33    29   ar
    33    27    21   ar
    34     7     1   ar
    35    19    14   ar
    36    12    13    1
@<TRIPOS>MOLECULE
*****
 33 36 0 0 0
SMALL
GASTEIGER

@<TRIPOS>ATOM
      1 C          64.0116   90.8959   12.4193 C.ar    1  UNL1        0.1581
      2 C          64.1478   89.7922   13.4260 C.ar    1  UNL1        0.0694
      3 C          63.5663   88.4396   13.1393 C.ar    1  UNL1        0.1620
      4 F          63.7025   87.3359   14.1459 F       1  UNL1       -0.2026
      5 C          62.8486   88.1906   11.8458 C.ar    1  UNL1        0.1535
      6 C          62.7124   89.2943   10.8392 C.ar    1  UNL1        0.0370
      7 C          63.2939   90.6469   11.1259 C.ar    1  UNL1        0.0936
      8 CL         63.1577   91.7506   10.1192 Cl      1  UNL1       -0.0790
      9 S          62.2670   86.8380   11.5591 S.O2    1  UNL1        0.0769
     10 O          61.3817   87.4412   10.5092 O.2     1  UNL1       -0.1498
     11 O          63.1524   86.2348   12.6090 O.2     1  UNL1       -0.1498
     12 N          61.6855   85.4854   11.2723 N.pl3   1  UNL1       -0.1987
     13 H          60.7182   85.3882   11.1172 H       1  UNL1        0.1753
     14 C          62.5779   84.2807   11.2220 C.ar    1  UNL1        0.1503
     15 C          63.5272   84.0980   10.0751 C.ar    1  UNL1        0.0563
     16 C          64.4196   82.8934   10.0248 C.ar    1  UNL1        0.1036
     17 N          64.3625   81.8714   11.1213 N.ar    1  UNL1       -0.2223
     18 C          63.4132   82.0541   12.2681 C.ar    1  UNL1        0.2001
     19 N          62.5208   83.2587   12.3185 N.ar    1  UNL1       -0.2077
     20 O          64.5932   92.2485   12.7061 O.3     1  UNL1       -0.4525
     21 C          67.1296   92.6343   13.1158 C.ar    1  UNL1        0.0527
     22 C          68.2873   92.7681   14.0600 C.ar    1  UNL1        0.0159
     23 C          68.0665   92.6498   15.5389 C.ar    1  UNL1        0.0579
     24 CL         69.2243   92.7835   16.4832 Cl      1  UNL1       -0.0822
     25 C          66.6878   92.3977   16.0735 C.ar    1  UNL1        0.0145
     26 C          65.5301   92.2640   15.1293 C.ar    1  UNL1        0.0384
     27 C          65.7509   92.3823   13.6504 C.ar    1  UNL1        0.1467
     28 C          66.0944   95.0733   11.2106 C.3     1  UNL1        0.1537
     29 N          66.8746   93.8736   10.7611 N.ar    1  UNL1       -0.2487
     30 N          67.3160   93.5844    9.3570 N.ar    1  UNL1       -0.1676
     31 C          68.0646   92.2846    9.3648 C.ar    1  UNL1        0.1217
     32 C          68.0859   91.7705   10.7738 C.ar    1  UNL1        0.0413
     33 C          67.3504   92.7526   11.6368 C.ar    1  UNL1        0.0825
@<TRIPOS>BOND
     1    28    29    1
     2    29    30   ar
     3    30    31   ar
     4    31    32   ar
     5    32    33   ar
     6    33    21    1
     7    21    22   ar
     8    22    23   ar
     9    23    24    1
    10    23    25   ar
    11    25    26   ar
    12    26    27   ar
    13    27    20    1
    14    20     1    1
    15     1     2   ar
    16     2     3   ar
    17     3     4    1
    18     3     5   ar
    19     5     9    1
    20     9    10    2
    21     9    11    2
    22     9    12    1
    23    12    14    1
    24    14    15   ar
    25    15    16   ar
    26    16    17   ar
    27    17    18   ar
    28    18    19   ar
    29     5     6   ar
    30     6     7   ar
    31     7     8    1
    32    33    29   ar
    33    27    21   ar
    34     7     1   ar
    35    19    14   ar
    36    12    13    1
@<TRIPOS>MOLECULE
*****
 33 36 0 0 0
SMALL
GASTEIGER

@<TRIPOS>ATOM
      1 C          62.2434   85.9619   10.8944 C.ar    1  UNL1        0.1581
      2 C          61.1569   86.8570   11.4127 C.ar    1  UNL1        0.0694
      3 C          60.2188   87.5296   10.4549 C.ar    1  UNL1        0.1620
      4 F          59.1324   88.4247   10.9731 F       1  UNL1       -0.2026
      5 C          60.3670   87.3072    8.9789 C.ar    1  UNL1        0.1535
      6 C          61.4534   86.4121    8.4607 C.ar    1  UNL1        0.0370
      7 C          62.3916   85.7395    9.4185 C.ar    1  UNL1        0.0936
      8 CL         63.4780   84.8444    8.9002 Cl      1  UNL1       -0.0790
      9 S          59.4288   87.9799    8.0211 S.O2    1  UNL1        0.0769
     10 O          58.9893   86.6397    7.5104 O.2     1  UNL1       -0.1498
     11 O          59.8684   89.3200    8.5318 O.2     1  UNL1       -0.1498
     12 N          58.4907   88.6525    7.0633 N.pl3   1  UNL1       -0.1987
     13 H          57.5507   88.3645    7.0108 H       1  UNL1        0.1753
     14 C          58.9847   89.7641    6.1855 C.ar    1  UNL1        0.1503
     15 C          58.0288   90.8067    5.6862 C.ar    1  UNL1        0.0563
     16 C          58.5228   91.9182    4.8084 C.ar    1  UNL1        0.1036
     17 N          59.9727   91.9871    4.4301 N.ar    1  UNL1       -0.2223
     18 C          60.9285   90.9446    4.9294 C.ar    1  UNL1        0.2001
     19 N          60.4345   89.8331    5.8072 N.ar    1  UNL1       -0.2077
     20 O          63.1816   85.2892   11.8522 O.3     1  UNL1       -0.4525
     21 C          62.8522   83.4070   13.6126 C.ar    1  UNL1        0.0527
     22 C          62.6722   81.9552   13.9439 C.ar    1  UNL1        0.0159
     23 C          62.6414   80.9337   12.8460 C.ar    1  UNL1        0.0579
     24 CL         62.4614   79.4818   13.1773 Cl      1  UNL1       -0.0822
     25 C          62.7907   81.3639   11.4168 C.ar    1  UNL1        0.0145
     26 C          62.9707   82.8157   11.0855 C.ar    1  UNL1        0.0384
     27 C          63.0015   83.8373   12.1834 C.ar    1  UNL1        0.1467
     28 C          65.4155   85.2441   14.4523 C.3     1  UNL1        0.1537
     29 N          64.0612   85.2730   15.0965 N.ar    1  UNL1       -0.2487
     30 N          63.6473   86.1514   16.2397 N.ar    1  UNL1       -0.1676
     31 C          62.2133   85.8500   16.5604 C.ar    1  UNL1        0.1217
     32 C          61.7410   84.7853   15.6154 C.ar    1  UNL1        0.0413
     33 C          62.8830   84.4287   14.7106 C.ar    1  UNL1        0.0825
@<TRIPOS>BOND
     1    28    29    1
     2    29    30   ar
     3    30    31   ar
     4    31    32   ar
     5    32    33   ar
     6    33    21    1
     7    21    22   ar
     8    22    23   ar
     9    23    24    1
    10    23    25   ar
    11    25    26   ar
    12    26    27   ar
    13    27    20    1
    14    20     1    1
    15     1     2   ar
    16     2     3   ar
    17     3     4    1
    18     3     5   ar
    19     5     9    1
    20     9    10    2
    21     9    11    2
    22     9    12    1
    23    12    14    1
    24    14    15   ar
    25    15    16   ar
    26    16    17   ar
    27    17    18   ar
    28    18    19   ar
    29     5     6   ar
    30     6     7   ar
    31     7     8    1
    32    33    29   ar
    33    27    21   ar
    34     7     1   ar
    35    19    14   ar
    36    12    13    1
@<TRIPOS>MOLECULE
*****
 33 36 0 0 0
SMALL
GASTEIGER

@<TRIPOS>ATOM
      1 C          64.0402   88.3552   15.2370 C.ar    1  UNL1        0.1581
      2 C          64.3314   87.4837   14.0513 C.ar    1  UNL1        0.0694
      3 C          63.9867   86.0244   14.0904 C.ar    1  UNL1        0.1620
      4 F          64.2779   85.1529   12.9048 F       1  UNL1       -0.2026
      5 C          63.3509   85.4365   15.3153 C.ar    1  UNL1        0.1535
      6 C          63.0598   86.3079   16.5009 C.ar    1  UNL1        0.0370
      7 C          63.4044   87.7673   16.4617 C.ar    1  UNL1        0.0936
      8 CL         63.1132   88.6387   17.6475 Cl      1  UNL1       -0.0790
      9 S          63.0063   83.9771   15.3544 S.O2    1  UNL1        0.0769
     10 O          61.5559   84.3148   15.1739 O.2     1  UNL1       -0.1498
     11 O          64.4566   83.6394   15.5349 O.2     1  UNL1       -0.1498
     12 N          62.6616   82.5178   15.3935 N.pl3   1  UNL1       -0.1987
     13 H          62.4133   82.0933   16.2464 H       1  UNL1        0.1753
     14 C          62.6952   81.7051   14.1331 C.ar    1  UNL1        0.1503
     15 C          62.9257   82.3783   12.8127 C.ar    1  UNL1        0.0563
     16 C          62.9593   81.5657   11.5523 C.ar    1  UNL1        0.1036
     17 N          62.7625   80.0799   11.6125 N.ar    1  UNL1       -0.2223
     18 C          62.5320   79.4067   12.9330 C.ar    1  UNL1        0.2001
     19 N          62.4984   80.2193   14.1933 N.ar    1  UNL1       -0.2077
     20 O          64.3849   89.8145   15.1978 O.3     1  UNL1       -0.4525
     21 C          65.4163   91.6158   13.6352 C.ar    1  UNL1        0.0527
     22 C          65.4251   92.3495   12.3270 C.ar    1  UNL1        0.0159
     23 C          64.4114   92.0156   11.2730 C.ar    1  UNL1        0.0579
     24 CL         64.4202   92.7494    9.9647 Cl      1  UNL1       -0.0822
     25 C          63.3888   90.9481   11.5273 C.ar    1  UNL1        0.0145
     26 C          63.3799   90.2144   12.8356 C.ar    1  UNL1        0.0384
     27 C          64.3937   90.5482   13.8895 C.ar    1  UNL1        0.1467
     28 C          64.7670   92.6133   16.6738 C.3     1  UNL1        0.1537
     29 N          66.1316   92.4081   16.0859 N.ar    1  UNL1       -0.2487
     30 N          67.4373   92.6253   16.7914 N.ar    1  UNL1       -0.1676
     31 C          68.5429   92.3011   15.8308 C.ar    1  UNL1        0.1217
     32 C          67.9203   91.8835   14.5316 C.ar    1  UNL1        0.0413
     33 C          66.4300   91.9496   14.6892 C.ar    1  UNL1        0.0825
@<TRIPOS>BOND
     1    28    29    1
     2    29    30   ar
     3    30    31   ar
     4    31    32   ar
     5    32    33   ar
     6    33    21    1
     7    21    22   ar
     8    22    23   ar
     9    23    24    1
    10    23    25   ar
    11    25    26   ar
    12    26    27   ar
    13    27    20    1
    14    20     1    1
    15     1     2   ar
    16     2     3   ar
    17     3     4    1
    18     3     5   ar
    19     5     9    1
    20     9    10    2
    21     9    11    2
    22     9    12    1
    23    12    14    1
    24    14    15   ar
    25    15    16   ar
    26    16    17   ar
    27    17    18   ar
    28    18    19   ar
    29     5     6   ar
    30     6     7   ar
    31     7     8    1
    32    33    29   ar
    33    27    21   ar
    34     7     1   ar
    35    19    14   ar
    36    12    13    1
@<TRIPOS>MOLECULE
*****
 33 36 0 0 0
SMALL
GASTEIGER

@<TRIPOS>ATOM
      1 C          64.1257   91.5370   12.8494 C.ar    1  UNL1        0.1581
      2 C          63.9110   91.2668   11.3896 C.ar    1  UNL1        0.0694
      3 C          63.1910   90.0248   10.9547 C.ar    1  UNL1        0.1620
      4 F          62.9763   89.7546    9.4950 F       1  UNL1       -0.2026
      5 C          62.6858   89.0531   11.9797 C.ar    1  UNL1        0.1535
      6 C          62.9005   89.3233   13.4394 C.ar    1  UNL1        0.0370
      7 C          63.6205   90.5653   13.8742 C.ar    1  UNL1        0.0936
      8 CL         63.8352   90.8355   15.3340 Cl      1  UNL1       -0.0790
      9 S          61.9658   87.8111   11.5448 S.O2    1  UNL1        0.0769
     10 O          60.9026   88.6522   10.9028 O.2     1  UNL1       -0.1498
     11 O          63.0290   86.9700   12.1868 O.2     1  UNL1       -0.1498
     12 N          61.2459   86.5691   11.1099 N.pl3   1  UNL1       -0.1987
     13 H          60.6918   86.0705   11.7532 H       1  UNL1        0.1753
     14 C          61.3701   86.0867    9.6950 C.ar    1  UNL1        0.1503
     15 C          62.6602   85.4895    9.2167 C.ar    1  UNL1        0.0563
     16 C          62.7844   85.0072    7.8019 C.ar    1  UNL1        0.1036
     17 N          61.6183   85.1220    6.8653 N.ar    1  UNL1       -0.2223
     18 C          60.3282   85.7191    7.3436 C.ar    1  UNL1        0.2001
     19 N          60.2040   86.2015    8.7584 N.ar    1  UNL1       -0.2077
     20 O          64.8457   92.7790   13.2842 O.3     1  UNL1       -0.4525
     21 C          67.4372   92.6239   13.3839 C.ar    1  UNL1        0.0527
     22 C          68.7024   92.5167   14.1825 C.ar    1  UNL1        0.0159
     23 C          68.6413   92.4572   15.6800 C.ar    1  UNL1        0.0579
     24 CL         69.9065   92.3500   16.4787 Cl      1  UNL1       -0.0822
     25 C          67.3150   92.5051   16.3790 C.ar    1  UNL1        0.0145
     26 C          66.0498   92.6123   15.5804 C.ar    1  UNL1        0.0384
     27 C          66.1109   92.6718   14.0829 C.ar    1  UNL1        0.1467
     28 C          66.2432   95.0130   11.5086 C.3     1  UNL1        0.1537
     29 N          66.9495   93.7815   11.0244 N.ar    1  UNL1       -0.2487
     30 N          67.2310   93.4319    9.5931 N.ar    1  UNL1       -0.1676
     31 C          67.9538   92.1177    9.5704 C.ar    1  UNL1        0.1217
     32 C          68.1190   91.6551   10.9877 C.ar    1  UNL1        0.0413
     33 C          67.4983   92.6834   11.8863 C.ar    1  UNL1        0.0825
@<TRIPOS>BOND
     1    28    29    1
     2    29    30   ar
     3    30    31   ar
     4    31    32   ar
     5    32    33   ar
     6    33    21    1
     7    21    22   ar
     8    22    23   ar
     9    23    24    1
    10    23    25   ar
    11    25    26   ar
    12    26    27   ar
    13    27    20    1
    14    20     1    1
    15     1     2   ar
    16     2     3   ar
    17     3     4    1
    18     3     5   ar
    19     5     9    1
    20     9    10    2
    21     9    11    2
    22     9    12    1
    23    12    14    1
    24    14    15   ar
    25    15    16   ar
    26    16    17   ar
    27    17    18   ar
    28    18    19   ar
    29     5     6   ar
    30     6     7   ar
    31     7     8    1
    32    33    29   ar
    33    27    21   ar
    34     7     1   ar
    35    19    14   ar
    36    12    13    1
@<TRIPOS>MOLECULE
*****
 33 36 0 0 0
SMALL
GASTEIGER

@<TRIPOS>ATOM
      1 C          63.6648   89.6327   14.2950 C.ar    1  UNL1        0.1581
      2 C          63.7204   88.6576   13.1565 C.ar    1  UNL1        0.0694
      3 C          63.7655   87.1839   13.4328 C.ar    1  UNL1        0.1620
      4 F          63.8211   86.2088   12.2945 F       1  UNL1       -0.2026
      5 C          63.7550   86.6855   14.8476 C.ar    1  UNL1        0.1535
      6 C          63.6994   87.6606   15.9860 C.ar    1  UNL1        0.0370
      7 C          63.6543   89.1342   15.7097 C.ar    1  UNL1        0.0936
      8 CL         63.5986   90.1094   16.8482 Cl      1  UNL1       -0.0790
      9 S          63.8001   85.2118   15.1239 S.O2    1  UNL1        0.0769
     10 O          65.2836   85.2156   14.9021 O.2     1  UNL1       -0.1498
     11 O          62.3166   85.2080   15.3456 O.2     1  UNL1       -0.1498
     12 N          63.8452   83.7382   15.4002 N.pl3   1  UNL1       -0.1987
     13 H          64.1201   83.4119   16.2874 H       1  UNL1        0.1753
     14 C          63.4714   82.7617   14.3246 C.ar    1  UNL1        0.1503
     15 C          64.0093   82.9342   12.9351 C.ar    1  UNL1        0.0563
     16 C          63.6355   81.9577   11.8596 C.ar    1  UNL1        0.1036
     17 N          62.7239   80.8087   12.1736 N.ar    1  UNL1       -0.2223
     18 C          62.1860   80.6361   13.5632 C.ar    1  UNL1        0.2001
     19 N          62.5598   81.6126   14.6387 N.ar    1  UNL1       -0.2077
     20 O          63.6197   91.1064   14.0187 O.3     1  UNL1       -0.4525
     21 C          65.7271   92.2812   13.0550 C.ar    1  UNL1        0.0527
     22 C          66.4783   92.8486   11.8873 C.ar    1  UNL1        0.0159
     23 C          65.8732   92.8087   10.5153 C.ar    1  UNL1        0.0579
     24 CL         66.6243   93.3761    9.3475 Cl      1  UNL1       -0.0822
     25 C          64.5169   92.2013   10.3112 C.ar    1  UNL1        0.0145
     26 C          63.7657   91.6339   11.4789 C.ar    1  UNL1        0.0384
     27 C          64.3708   91.6738   12.8509 C.ar    1  UNL1        0.1467
     28 C          68.8725   91.7999   13.7791 C.3     1  UNL1        0.1537
     29 N          67.7779   92.0999   14.7598 N.ar    1  UNL1       -0.2487
     30 N          67.9370   92.2313   16.2456 N.ar    1  UNL1       -0.1676
     31 C          66.5894   92.5338   16.8311 C.ar    1  UNL1        0.1217
     32 C          65.5977   92.5893   15.7071 C.ar    1  UNL1        0.0413
     33 C          66.3322   92.3211   14.4270 C.ar    1  UNL1        0.0825
@<TRIPOS>BOND
     1    28    29    1
     2    29    30   ar
     3    30    31   ar
     4    31    32   ar
     5    32    33   ar
     6    33    21    1
     7    21    22   ar
     8    22    23   ar
     9    23    24    1
    10    23    25   ar
    11    25    26   ar
    12    26    27   ar
    13    27    20    1
    14    20     1    1
    15     1     2   ar
    16     2     3   ar
    17     3     4    1
    18     3     5   ar
    19     5     9    1
    20     9    10    2
    21     9    11    2
    22     9    12    1
    23    12    14    1
    24    14    15   ar
    25    15    16   ar
    26    16    17   ar
    27    17    18   ar
    28    18    19   ar
    29     5     6   ar
    30     6     7   ar
    31     7     8    1
    32    33    29   ar
    33    27    21   ar
    34     7     1   ar
    35    19    14   ar
    36    12    13    1
@<TRIPOS>MOLECULE
*****
 33 36 0 0 0
SMALL
GASTEIGER

@<TRIPOS>ATOM
      1 C          63.3855   88.9261   14.2904 C.ar    1  UNL1        0.1581
      2 C          63.4543   88.0095   13.1050 C.ar    1  UNL1        0.0694
      3 C          63.6322   86.5339   13.3073 C.ar    1  UNL1        0.1620
      4 F          63.7010   85.6173   12.1220 F       1  UNL1       -0.2026
      5 C          63.7414   85.9749   14.6951 C.ar    1  UNL1        0.1535
      6 C          63.6726   86.8916   15.8804 C.ar    1  UNL1        0.0370
      7 C          63.4947   88.3672   15.6780 C.ar    1  UNL1        0.0936
      8 CL         63.4259   89.2838   16.8634 Cl      1  UNL1       -0.0790
      9 S          63.9193   84.4993   14.8974 S.O2    1  UNL1        0.0769
     10 O          62.4531   84.3617   15.1828 O.2     1  UNL1       -0.1498
     11 O          65.3854   84.6370   14.6120 O.2     1  UNL1       -0.1498
     12 N          64.0972   83.0237   15.0997 N.pl3   1  UNL1       -0.1987
     13 H          64.5343   82.6879   15.9154 H       1  UNL1        0.1753
     14 C          63.6091   82.0598   14.0592 C.ar    1  UNL1        0.1503
     15 C          63.8580   82.3354   12.6059 C.ar    1  UNL1        0.0563
     16 C          63.3699   81.3715   11.5655 C.ar    1  UNL1        0.1036
     17 N          62.6329   80.1320   11.9783 N.ar    1  UNL1       -0.2223
     18 C          62.3840   79.8564   13.4315 C.ar    1  UNL1        0.2001
     19 N          62.8721   80.8203   14.4720 N.ar    1  UNL1       -0.2077
     20 O          63.2076   90.4018   14.0881 O.3     1  UNL1       -0.4525
     21 C          63.4239   91.2207   11.6319 C.ar    1  UNL1        0.0527
     22 C          64.2008   91.9301   10.5628 C.ar    1  UNL1        0.0159
     23 C          65.5383   92.5301   10.8807 C.ar    1  UNL1        0.0579
     24 CL         66.3153   93.2396    9.8115 Cl      1  UNL1       -0.0822
     25 C          66.0989   92.4207   12.2677 C.ar    1  UNL1        0.0145
     26 C          65.3220   91.7112   13.3368 C.ar    1  UNL1        0.0384
     27 C          63.9845   91.1112   13.0189 C.ar    1  UNL1        0.1467
     28 C          62.8975   88.5597    9.8176 C.3     1  UNL1        0.1537
     29 N          61.8444   89.3976   10.4802 N.ar    1  UNL1       -0.2487
     30 N          60.3645   89.1594   10.4251 N.ar    1  UNL1       -0.1676
     31 C          59.6917   90.2354   11.2250 C.ar    1  UNL1        0.1217
     32 C          60.7559   91.1385   11.7744 C.ar    1  UNL1        0.0413
     33 C          62.0864   90.6207   11.3141 C.ar    1  UNL1        0.0825
@<TRIPOS>BOND
     1    28    29    1
     2    29    30   ar
     3    30    31   ar
     4    31    32   ar
     5    32    33   ar
     6    33    21    1
     7    21    22   ar
     8    22    23   ar
     9    23    24    1
    10    23    25   ar
    11    25    26   ar
    12    26    27   ar
    13    27    20    1
    14    20     1    1
    15     1     2   ar
    16     2     3   ar
    17     3     4    1
    18     3     5   ar
    19     5     9    1
    20     9    10    2
    21     9    11    2
    22     9    12    1
    23    12    14    1
    24    14    15   ar
    25    15    16   ar
    26    16    17   ar
    27    17    18   ar
    28    18    19   ar
    29     5     6   ar
    30     6     7   ar
    31     7     8    1
    32    33    29   ar
    33    27    21   ar
    34     7     1   ar
    35    19    14   ar
    36    12    13    1
