@<TRIPOS>MOLECULE
*****
 17 18 0 0 0
SMALL
GASTEIGER

@<TRIPOS>ATOM
      1 C          66.0784   92.2601   14.0531 C.ar    1  UNL1        0.0968
      2 S          65.0532   91.2001   14.3275 S.2     1  UNL1       -0.0622
      3 C          64.2639   90.9821   13.0707 C.ar    1  UNL1        0.1120
      4 N          63.1253   90.0607   12.7476 N.ar    1  UNL1       -0.2373
      5 C          62.5241   90.0645   11.3734 C.ar    1  UNL1        0.0994
      6 C          63.0616   90.9898   10.3222 C.ar    1  UNL1        0.0208
      7 C          64.2002   91.9113   10.6453 C.ar    1  UNL1        0.0048
      8 C          64.8014   91.9074   12.0195 C.ar    1  UNL1        0.0374
      9 C          65.9228   92.6972   12.6267 C.ar    1  UNL1        0.0540
     10 N          66.7443   93.7410   11.9298 N.pl3   1  UNL1       -0.3564
     11 H          66.5653   93.9596   10.9867 H       1  UNL1        0.1424
     12 H          67.4625   94.2074   12.4154 H       1  UNL1        0.1424
     13 N          66.6732   93.0730   16.4479 N.am    1  UNL1       -0.3249
     14 C          67.0829   92.7899   15.0331 C.2     1  UNL1        0.2500
     15 O          68.4971   93.0365   14.5981 O.2     1  UNL1       -0.2698
     16 H          67.3325   93.4207   17.0911 H       1  UNL1        0.1453
     17 H          65.7450   92.9111   16.7334 H       1  UNL1        0.1453
@<TRIPOS>BOND
     1    13    14   am
     2    14    15    2
     3    14     1    1
     4     1     2   ar
     5     2     3   ar
     6     3     4   ar
     7     4     5   ar
     8     5     6   ar
     9     6     7   ar
    10     7     8   ar
    11     8     9   ar
    12     9    10    1
    13     9     1   ar
    14     8     3   ar
    15    13    16    1
    16    13    17    1
    17    10    11    1
    18    10    12    1
@<TRIPOS>MOLECULE
*****
 17 18 0 0 0
SMALL
GASTEIGER

@<TRIPOS>ATOM
      1 C          65.3870   92.1171   12.8043 C.ar    1  UNL1        0.0968
      2 S          64.5354   91.1055   13.5124 S.2     1  UNL1       -0.0622
      3 C          63.5163   90.5939   12.5379 C.ar    1  UNL1        0.1120
      4 N          62.4150   89.5846   12.6744 N.ar    1  UNL1       -0.2373
      5 C          61.5356   89.2708   11.5005 C.ar    1  UNL1        0.0994
      6 C          61.7575   89.9662   10.1901 C.ar    1  UNL1        0.0208
      7 C          62.8587   90.9754   10.0535 C.ar    1  UNL1        0.0048
      8 C          63.7381   91.2892   11.2274 C.ar    1  UNL1        0.0374
      9 C          64.8943   92.2306   11.3921 C.ar    1  UNL1        0.0540
     10 N          65.4587   93.1280   10.3309 N.pl3   1  UNL1       -0.3564
     11 H          65.0646   93.1316    9.4287 H       1  UNL1        0.1424
     12 H          66.2231   93.7133   10.5366 H       1  UNL1        0.1424
     13 N          67.9192   92.3161   13.3508 N.am    1  UNL1       -0.3249
     14 C          66.5306   92.8809   13.4033 C.2     1  UNL1        0.2500
     15 O          66.2856   94.2097   14.0547 O.2     1  UNL1       -0.2698
     16 H          68.6697   92.8175   13.7439 H       1  UNL1        0.1453
     17 H          68.0800   91.4440   12.9232 H       1  UNL1        0.1453
@<TRIPOS>BOND
     1    13    14   am
     2    14    15    2
     3    14     1    1
     4     1     2   ar
     5     2     3   ar
     6     3     4   ar
     7     4     5   ar
     8     5     6   ar
     9     6     7   ar
    10     7     8   ar
    11     8     9   ar
    12     9    10    1
    13     9     1   ar
    14     8     3   ar
    15    13    16    1
    16    13    17    1
    17    10    11    1
    18    10    12    1
@<TRIPOS>MOLECULE
*****
 17 18 0 0 0
SMALL
GASTEIGER

@<TRIPOS>ATOM
      1 C          62.2319   88.9708   11.3822 C.ar    1  UNL1        0.0968
      2 S          61.4834   89.8009   10.3818 S.2     1  UNL1       -0.0622
      3 C          60.7878   88.8692    9.4341 C.ar    1  UNL1        0.1120
      4 N          59.9055   89.1194    8.2472 N.ar    1  UNL1       -0.2373
      5 C          59.3417   87.9636    7.4749 C.ar    1  UNL1        0.0994
      6 C          59.6603   86.5577    7.8896 C.ar    1  UNL1        0.0208
      7 C          60.5426   86.3076    9.0766 C.ar    1  UNL1        0.0048
      8 C          61.1063   87.4633    9.8488 C.ar    1  UNL1        0.0374
      9 C          61.9988   87.5261   11.0528 C.ar    1  UNL1        0.0540
     10 N          62.5597   86.3506   11.7968 N.pl3   1  UNL1       -0.3564
     11 H          62.3484   85.4352   11.5022 H       1  UNL1        0.1424
     12 H          63.1392   86.4944   12.5796 H       1  UNL1        0.1424
     13 N          63.1583   90.9708   12.7577 N.am    1  UNL1       -0.3249
     14 C          63.0668   89.4937   12.5134 C.2     1  UNL1        0.2500
     15 O          63.8102   88.5394   13.4003 O.2     1  UNL1       -0.2698
     16 H          63.7063   91.3139   13.5001 H       1  UNL1        0.1453
     17 H          62.6703   91.5971   12.1756 H       1  UNL1        0.1453
@<TRIPOS>BOND
     1    13    14   am
     2    14    15    2
     3    14     1    1
     4     1     2   ar
     5     2     3   ar
     6     3     4   ar
     7     4     5   ar
     8     5     6   ar
     9     6     7   ar
    10     7     8   ar
    11     8     9   ar
    12     9    10    1
    13     9     1   ar
    14     8     3   ar
    15    13    16    1
    16    13    17    1
    17    10    11    1
    18    10    12    1
@<TRIPOS>MOLECULE
*****
 17 18 0 0 0
SMALL
GASTEIGER

@<TRIPOS>ATOM
      1 C          63.0869   83.3733   12.8321 C.ar    1  UNL1        0.0968
      2 S          62.6229   84.7709   13.1178 S.2     1  UNL1       -0.0622
      3 C          62.5061   85.4969   11.8104 C.ar    1  UNL1        0.1120
      4 N          62.0936   86.8993   11.4745 N.ar    1  UNL1       -0.2373
      5 C          62.0729   87.3530   10.0449 C.ar    1  UNL1        0.0994
      6 C          62.4647   86.4041    8.9512 C.ar    1  UNL1        0.0208
      7 C          62.8772   85.0017    9.2871 C.ar    1  UNL1        0.0048
      8 C          62.8979   84.5480   10.7167 C.ar    1  UNL1        0.0374
      9 C          63.2569   83.2356   11.3482 C.ar    1  UNL1        0.0540
     10 N          63.7068   82.0021   10.6230 N.pl3   1  UNL1       -0.3564
     11 H          63.7881   82.0099    9.6419 H       1  UNL1        0.1424
     12 H          63.9209   81.1846   11.1281 H       1  UNL1        0.1424
     13 N          62.9241   82.5124   15.2780 N.am    1  UNL1       -0.3249
     14 C          63.3370   82.3017   13.8514 C.2     1  UNL1        0.2500
     15 O          64.0001   81.0193   13.4442 O.2     1  UNL1       -0.2698
     16 H          63.0882   81.8090   15.9470 H       1  UNL1        0.1453
     17 H          62.4889   83.3541   15.5453 H       1  UNL1        0.1453
@<TRIPOS>BOND
     1    13    14   am
     2    14    15    2
     3    14     1    1
     4     1     2   ar
     5     2     3   ar
     6     3     4   ar
     7     4     5   ar
     8     5     6   ar
     9     6     7   ar
    10     7     8   ar
    11     8     9   ar
    12     9    10    1
    13     9     1   ar
    14     8     3   ar
    15    13    16    1
    16    13    17    1
    17    10    11    1
    18    10    12    1
@<TRIPOS>MOLECULE
*****
 17 18 0 0 0
SMALL
GASTEIGER

@<TRIPOS>ATOM
      1 C          62.3004   90.5636   11.3494 C.ar    1  UNL1        0.0968
      2 S          63.1728   91.2810   10.3623 S.2     1  UNL1       -0.0622
      3 C          64.3982   91.7556   11.0857 C.ar    1  UNL1        0.1120
      4 N          65.6038   92.5190   10.6237 N.ar    1  UNL1       -0.2373
      5 C          66.6944   92.8585   11.5960 C.ar    1  UNL1        0.0994
      6 C          66.5794   92.4344   13.0302 C.ar    1  UNL1        0.0208
      7 C          65.3738   91.6710   13.4921 C.ar    1  UNL1        0.0048
      8 C          64.2831   91.3315   12.5199 C.ar    1  UNL1        0.0374
      9 C          62.9867   90.5949   12.6829 C.ar    1  UNL1        0.0540
     10 N          62.4676   89.9948   13.9559 N.pl3   1  UNL1       -0.3564
     11 H          62.9938   90.0677   14.7848 H       1  UNL1        0.1424
     12 H          61.6008   89.5282   13.9625 H       1  UNL1        0.1424
     13 N          60.3164   90.1460    9.7250 N.am    1  UNL1       -0.3249
     14 C          60.9747   89.9268   11.0548 C.2     1  UNL1        0.2500
     15 O          60.3072   89.0709   12.0901 O.2     1  UNL1       -0.2698
     16 H          59.4462   89.7280    9.5316 H       1  UNL1        0.1453
     17 H          60.7545   90.7077    9.0455 H       1  UNL1        0.1453
@<TRIPOS>BOND
     1    13    14   am
     2    14    15    2
     3    14     1    1
     4     1     2   ar
     5     2     3   ar
     6     3     4   ar
     7     4     5   ar
     8     5     6   ar
     9     6     7   ar
    10     7     8   ar
    11     8     9   ar
    12     9    10    1
    13     9     1   ar
    14     8     3   ar
    15    13    16    1
    16    13    17    1
    17    10    11    1
    18    10    12    1
@<TRIPOS>MOLECULE
*****
 17 18 0 0 0
SMALL
GASTEIGER

@<TRIPOS>ATOM
      1 C          60.2630   88.0600   10.3642 C.ar    1  UNL1        0.0968
      2 S          59.5979   87.5649    9.1142 S.2     1  UNL1       -0.0622
      3 C          60.5265   86.5929    8.4488 C.ar    1  UNL1        0.1120
      4 N          60.4038   85.7904    7.1875 N.ar    1  UNL1       -0.2373
      5 C          61.5203   84.8822    6.7649 C.ar    1  UNL1        0.0994
      6 C          62.7594   84.7765    7.6036 C.ar    1  UNL1        0.0208
      7 C          62.8821   85.5790    8.8648 C.ar    1  UNL1        0.0048
      8 C          61.7656   86.4872    9.2874 C.ar    1  UNL1        0.0374
      9 C          61.6028   87.3940   10.4712 C.ar    1  UNL1        0.0540
     10 N          62.6040   87.5987   11.5693 N.pl3   1  UNL1       -0.3564
     11 H          63.4604   87.1133   11.5514 H       1  UNL1        0.1424
     12 H          62.4047   88.2183   12.3079 H       1  UNL1        0.1424
     13 N          59.0449   88.5662   12.6025 N.am    1  UNL1       -0.3249
     14 C          59.6893   89.0477   11.3364 C.2     1  UNL1        0.2500
     15 O          59.7598   90.5169   11.0426 O.2     1  UNL1       -0.2698
     16 H          58.6683   89.2145   13.2405 H       1  UNL1        0.1453
     17 H          58.9986   87.6019   12.7954 H       1  UNL1        0.1453
@<TRIPOS>BOND
     1    13    14   am
     2    14    15    2
     3    14     1    1
     4     1     2   ar
     5     2     3   ar
     6     3     4   ar
     7     4     5   ar
     8     5     6   ar
     9     6     7   ar
    10     7     8   ar
    11     8     9   ar
    12     9    10    1
    13     9     1   ar
    14     8     3   ar
    15    13    16    1
    16    13    17    1
    17    10    11    1
    18    10    12    1
@<TRIPOS>MOLECULE
*****
 17 18 0 0 0
SMALL
GASTEIGER

@<TRIPOS>ATOM
      1 C          63.1516   83.4099   13.2352 C.ar    1  UNL1        0.0968
      2 S          62.7264   84.4902   12.2854 S.2     1  UNL1       -0.0622
      3 C          63.1872   85.8047   12.8421 C.ar    1  UNL1        0.1120
      4 N          63.0520   87.2109   12.3379 N.ar    1  UNL1       -0.2373
      5 C          63.6269   88.3492   13.1277 C.ar    1  UNL1        0.0994
      6 C          64.3369   88.0813   14.4215 C.ar    1  UNL1        0.0208
      7 C          64.4721   86.6751   14.9256 C.ar    1  UNL1        0.0048
      8 C          63.8973   85.5367   14.1359 C.ar    1  UNL1        0.0374
      9 C          63.8753   84.0567   14.3789 C.ar    1  UNL1        0.0540
     10 N          64.4721   83.3479   15.5584 N.pl3   1  UNL1       -0.3564
     11 H          64.9300   83.8625   16.2619 H       1  UNL1        0.1424
     12 H          64.4061   82.3682   15.6292 H       1  UNL1        0.1424
     13 N          62.8773   81.3324   11.6994 N.am    1  UNL1       -0.3249
     14 C          62.8978   81.9407   13.0703 C.2     1  UNL1        0.2500
     15 O          62.6643   81.0800   14.2763 O.2     1  UNL1       -0.2698
     16 H          62.7107   80.3681   11.5912 H       1  UNL1        0.1453
     17 H          63.0305   81.8974   10.9078 H       1  UNL1        0.1453
@<TRIPOS>BOND
     1    13    14   am
     2    14    15    2
     3    14     1    1
     4     1     2   ar
     5     2     3   ar
     6     3     4   ar
     7     4     5   ar
     8     5     6   ar
     9     6     7   ar
    10     7     8   ar
    11     8     9   ar
    12     9    10    1
    13     9     1   ar
    14     8     3   ar
    15    13    16    1
    16    13    17    1
    17    10    11    1
    18    10    12    1
@<TRIPOS>MOLECULE
*****
 17 18 0 0 0
SMALL
GASTEIGER

@<TRIPOS>ATOM
      1 C          63.4708   83.0009   12.8447 C.ar    1  UNL1        0.0968
      2 S          63.8632   82.7267   11.4232 S.2     1  UNL1       -0.0622
      3 C          63.3869   83.8733   10.5814 C.ar    1  UNL1        0.1120
      4 N          63.4899   84.1493    9.1107 N.ar    1  UNL1       -0.2373
      5 C          62.9061   85.4083    8.5413 C.ar    1  UNL1        0.0994
      6 C          62.2194   86.3911    9.4426 C.ar    1  UNL1        0.0208
      7 C          62.1165   86.1151   10.9134 C.ar    1  UNL1        0.0048
      8 C          62.7002   84.8561   11.4828 C.ar    1  UNL1        0.0374
      9 C          62.7521   84.3169   12.8816 C.ar    1  UNL1        0.0540
     10 N          62.1848   84.9778   14.1028 N.pl3   1  UNL1       -0.3564
     11 H          61.7279   85.8465   14.0251 H       1  UNL1        0.1424
     12 H          62.2693   84.5430   14.9820 H       1  UNL1        0.1424
     13 N          63.7261   80.6235   13.8611 N.am    1  UNL1       -0.3249
     14 C          63.7484   82.1146   14.0226 C.2     1  UNL1        0.2500
     15 O          64.0484   82.7194   15.3621 O.2     1  UNL1       -0.2698
     16 H          63.9083   80.0418   14.6342 H       1  UNL1        0.1453
     17 H          63.5293   80.2265   12.9820 H       1  UNL1        0.1453
@<TRIPOS>BOND
     1    13    14   am
     2    14    15    2
     3    14     1    1
     4     1     2   ar
     5     2     3   ar
     6     3     4   ar
     7     4     5   ar
     8     5     6   ar
     9     6     7   ar
    10     7     8   ar
    11     8     9   ar
    12     9    10    1
    13     9     1   ar
    14     8     3   ar
    15    13    16    1
    16    13    17    1
    17    10    11    1
    18    10    12    1
@<TRIPOS>MOLECULE
*****
 17 18 0 0 0
SMALL
GASTEIGER

@<TRIPOS>ATOM
      1 C          62.9666   82.2661   13.3753 C.ar    1  UNL1        0.0968
      2 S          62.1936   82.6129   14.6132 S.2     1  UNL1       -0.0622
      3 C          62.7330   83.9057   15.1496 C.ar    1  UNL1        0.1120
      4 N          62.3596   84.7295   16.3462 N.ar    1  UNL1       -0.2373
      5 C          63.0927   86.0055   16.6365 C.ar    1  UNL1        0.0994
      6 C          64.1991   86.4577   15.7302 C.ar    1  UNL1        0.0208
      7 C          64.5724   85.6339   14.5336 C.ar    1  UNL1        0.0048
      8 C          63.8393   84.3579   14.2433 C.ar    1  UNL1        0.0374
      9 C          63.9837   83.3446   13.1468 C.ar    1  UNL1        0.0540
     10 N          64.9718   83.4001   12.0195 N.pl3   1  UNL1       -0.3564
     11 H          65.6026   84.1531   11.9545 H       1  UNL1        0.1424
     12 H          64.9894   82.6835   11.3447 H       1  UNL1        0.1424
     13 N          62.2789   79.7726   13.1318 N.am    1  UNL1       -0.3249
     14 C          62.7589   81.0537   12.5169 C.2     1  UNL1        0.2500
     15 O          63.0312   81.1225   11.0434 O.2     1  UNL1       -0.2698
     16 H          62.1425   78.9769   12.5683 H       1  UNL1        0.1453
     17 H          62.1001   79.7274   14.0989 H       1  UNL1        0.1453
@<TRIPOS>BOND
     1    13    14   am
     2    14    15    2
     3    14     1    1
     4     1     2   ar
     5     2     3   ar
     6     3     4   ar
     7     4     5   ar
     8     5     6   ar
     9     6     7   ar
    10     7     8   ar
    11     8     9   ar
    12     9    10    1
    13     9     1   ar
    14     8     3   ar
    15    13    16    1
    16    13    17    1
    17    10    11    1
    18    10    12    1
