@<TRIPOS>MOLECULE
*****
 38 42 0 0 0
SMALL
GASTEIGER

@<TRIPOS>ATOM
      1 C          61.9591   88.5549   10.9700 C.3     1  UNL1        0.0933
      2 C          61.9991   89.7047   10.0074 C.3     1  UNL1        0.0442
      3 C          61.1125   89.7012    8.7975 C.3     1  UNL1        0.0953
      4 N          60.1858   88.5479    8.5501 N.am    1  UNL1       -0.2794
      5 C          59.2991   88.5443    7.3402 C.2     1  UNL1        0.2252
      6 O          58.3725   87.3910    7.0929 O.2     1  UNL1       -0.2749
      7 C          60.1458   87.3982    9.5127 C.3     1  UNL1        0.0953
      8 C          61.0324   87.4017   10.7226 C.3     1  UNL1        0.0442
      9 N          64.2309   89.3134   14.0242 N.ar    1  UNL1       -0.2773
     10 C          63.4005   89.7733   12.8628 C.ar    1  UNL1        0.3316
     11 O          63.1661   91.1979   12.4557 O.2     1  UNL1       -0.2463
     12 N          62.8457   88.5585   12.1799 N.ar    1  UNL1       -0.2817
     13 C          63.3332   87.3478   12.9192 C.ar    1  UNL1        0.0796
     14 C          63.1081   85.8809   12.7018 C.ar    1  UNL1        0.0188
     15 C          63.7392   84.8805   13.6243 C.ar    1  UNL1        0.0016
     16 C          64.5953   85.3471   14.7642 C.ar    1  UNL1        0.0016
     17 C          64.8203   86.8140   14.9816 C.ar    1  UNL1        0.0188
     18 C          64.1893   87.8144   14.0591 C.ar    1  UNL1        0.0798
     19 C          64.9727   90.1974   14.9826 C.3     1  UNL1        0.1425
     20 C          65.9483   91.2124   14.4652 C.3     1  UNL1        0.1668
     21 C          66.5298   93.6771   13.8844 C.3     1  UNL1        0.1742
     22 O          65.5999   92.6711   14.4955 O.3     1  UNL1       -0.3490
     23 C          59.3392   89.6941    6.3777 C.3     1  UNL1        0.0795
     24 C          60.6368   90.0935    5.7400 C.3     1  UNL1        0.0264
     25 C          60.6768   91.2433    4.7774 C.3     1  UNL1        0.0729
     26 N          59.4192   91.9937    4.4527 N.3     1  UNL1       -0.2689
     27 C          58.1217   91.5943    5.0905 C.3     1  UNL1        0.0729
     28 C          58.0817   90.4445    6.0529 C.3     1  UNL1        0.0264
     29 C          59.4593   93.1434    3.4902 C.3     1  UNL1        0.0993
     30 C          60.0710   92.9640    2.1324 C.ar    1  UNL1       -0.0018
     31 C          61.5614   93.0099    1.9692 C.ar    1  UNL1        0.0179
     32 C          62.1730   92.8305    0.6114 C.ar    1  UNL1        0.1000
     33 N          61.2943   92.6051   -0.5832 N.ar    1  UNL1       -0.2296
     34 C          59.8039   92.5592   -0.4200 C.ar    1  UNL1        0.1251
     35 N          58.9253   92.3338   -1.6146 N.pl3   1  UNL1       -0.3426
     36 C          59.1923   92.7386    0.9379 C.ar    1  UNL1        0.0310
     37 H          59.3268   92.2160   -2.5057 H       1  UNL1        0.1437
     38 H          57.9471   92.3036   -1.5075 H       1  UNL1        0.1437
@<TRIPOS>BOND
     1    21    22    1
     2    22    20    1
     3    20    19    1
     4    19     9    1
     5     9    10   ar
     6    10    11    2
     7    10    12   ar
     8    12     1    1
     9     1     2    1
    10     2     3    1
    11     3     4    1
    12     4     5   am
    13     5     6    2
    14     5    23    1
    15    23    24    1
    16    24    25    1
    17    25    26    1
    18    26    29    1
    19    29    30    1
    20    30    31   ar
    21    31    32   ar
    22    32    33   ar
    23    33    34   ar
    24    34    35    1
    25    34    36   ar
    26    26    27    1
    27    27    28    1
    28     4     7    1
    29     7     8    1
    30    12    13   ar
    31    13    14   ar
    32    14    15   ar
    33    15    16   ar
    34    16    17   ar
    35    17    18   ar
    36    18     9   ar
    37     8     1    1
    38    18    13   ar
    39    28    23    1
    40    36    30   ar
    41    35    37    1
    42    35    38    1
@<TRIPOS>MOLECULE
*****
 38 42 0 0 0
SMALL
GASTEIGER

@<TRIPOS>ATOM
      1 C          61.8843   88.2648   10.9132 C.3     1  UNL1        0.0933
      2 C          61.9847   89.4342    9.9790 C.3     1  UNL1        0.0442
      3 C          61.0890   89.5141    8.7785 C.3     1  UNL1        0.0953
      4 N          60.0929   88.4247    8.5120 N.am    1  UNL1       -0.2794
      5 C          59.1972   88.5046    7.3115 C.2     1  UNL1        0.2252
      6 O          58.2012   87.4151    7.0450 O.2     1  UNL1       -0.2749
      7 C          59.9926   87.2553    9.4461 C.3     1  UNL1        0.0953
      8 C          60.8883   87.1754   10.6467 C.3     1  UNL1        0.0442
      9 N          64.0459   87.3213   13.9958 N.ar    1  UNL1       -0.2773
     10 C          63.1245   86.9394   12.8755 C.ar    1  UNL1        0.3316
     11 O          62.6338   85.5552   12.5703 O.2     1  UNL1       -0.2463
     12 N          62.7800   88.1849   12.1138 N.ar    1  UNL1       -0.2817
     13 C          63.4885   89.3364   12.7634 C.ar    1  UNL1        0.0796
     14 C          63.5222   90.8021   12.4460 C.ar    1  UNL1        0.0188
     15 C          64.3384   91.7339   13.2919 C.ar    1  UNL1        0.0016
     16 C          65.1207   91.2002   14.4551 C.ar    1  UNL1        0.0016
     17 C          65.0869   89.7346   14.7724 C.ar    1  UNL1        0.0188
     18 C          64.2708   88.8027   13.9266 C.ar    1  UNL1        0.0798
     19 C          64.6383   86.3859   15.0078 C.3     1  UNL1        0.1425
     20 C          63.7502   85.4557   15.7798 C.3     1  UNL1        0.1668
     21 C          62.6574   86.5166   17.8846 C.3     1  UNL1        0.1742
     22 O          62.5387   85.9887   16.4856 O.3     1  UNL1       -0.3490
     23 C          59.2977   89.6739    6.3774 C.3     1  UNL1        0.0795
     24 C          60.6238   90.0491    5.7852 C.3     1  UNL1        0.0264
     25 C          60.7241   91.2185    4.8511 C.3     1  UNL1        0.0729
     26 N          59.4984   92.0127    4.5092 N.3     1  UNL1       -0.2689
     27 C          58.1723   91.6375    5.1015 C.3     1  UNL1        0.0729
     28 C          58.0720   90.4682    6.0355 C.3     1  UNL1        0.0264
     29 C          59.5988   93.1821    3.5752 C.3     1  UNL1        0.0993
     30 C          60.1500   92.9928    2.1930 C.ar    1  UNL1       -0.0018
     31 C          61.6289   93.0780    1.9572 C.ar    1  UNL1        0.0179
     32 C          62.1802   92.8888    0.5751 C.ar    1  UNL1        0.1000
     33 N          61.2525   92.6143   -0.5713 N.ar    1  UNL1       -0.2296
     34 C          59.7736   92.5291   -0.3354 C.ar    1  UNL1        0.1251
     35 N          58.8460   92.2547   -1.4818 N.pl3   1  UNL1       -0.3426
     36 C          59.2224   92.7184    1.0467 C.ar    1  UNL1        0.0310
     37 H          59.2078   92.1305   -2.3889 H       1  UNL1        0.1437
     38 H          57.8753   92.1988   -1.3270 H       1  UNL1        0.1437
@<TRIPOS>BOND
     1    21    22    1
     2    22    20    1
     3    20    19    1
     4    19     9    1
     5     9    10   ar
     6    10    11    2
     7    10    12   ar
     8    12     1    1
     9     1     2    1
    10     2     3    1
    11     3     4    1
    12     4     5   am
    13     5     6    2
    14     5    23    1
    15    23    24    1
    16    24    25    1
    17    25    26    1
    18    26    29    1
    19    29    30    1
    20    30    31   ar
    21    31    32   ar
    22    32    33   ar
    23    33    34   ar
    24    34    35    1
    25    34    36   ar
    26    26    27    1
    27    27    28    1
    28     4     7    1
    29     7     8    1
    30    12    13   ar
    31    13    14   ar
    32    14    15   ar
    33    15    16   ar
    34    16    17   ar
    35    17    18   ar
    36    18     9   ar
    37     8     1    1
    38    18    13   ar
    39    28    23    1
    40    36    30   ar
    41    35    37    1
    42    35    38    1
@<TRIPOS>MOLECULE
*****
 38 42 0 0 0
SMALL
GASTEIGER

@<TRIPOS>ATOM
      1 C          63.4646   85.5810   14.4022 C.3     1  UNL1        0.0933
      2 C          64.0431   86.6448   13.5168 C.3     1  UNL1        0.0442
      3 C          64.1837   88.0490   14.0251 C.3     1  UNL1        0.0953
      4 N          63.7458   88.3896   15.4187 N.am    1  UNL1       -0.2794
      5 C          63.8864   89.7938   15.9270 C.2     1  UNL1        0.2252
      6 O          63.4486   90.1343   17.3207 O.2     1  UNL1       -0.2749
      7 C          63.1674   87.3259   16.3041 C.3     1  UNL1        0.0953
      8 C          63.0268   85.9216   15.7958 C.3     1  UNL1        0.0442
      9 N          62.9535   81.7798   13.8067 N.ar    1  UNL1       -0.2773
     10 C          62.9918   82.9694   14.7197 C.ar    1  UNL1        0.3316
     11 O          62.7419   82.9542   16.1986 O.2     1  UNL1       -0.2463
     12 N          63.3240   84.1768   13.8940 N.ar    1  UNL1       -0.2817
     13 C          63.4909   83.7335   12.4707 C.ar    1  UNL1        0.0796
     14 C          63.8218   84.4874   11.2169 C.ar    1  UNL1        0.0188
     15 C          63.9237   83.7598    9.9091 C.ar    1  UNL1        0.0016
     16 C          63.6947   82.2784    9.8552 C.ar    1  UNL1        0.0016
     17 C          63.3638   81.5245   11.1090 C.ar    1  UNL1        0.0188
     18 C          63.2619   82.2520   12.4168 C.ar    1  UNL1        0.0798
     19 C          62.6584   80.3662   14.2124 C.3     1  UNL1        0.1425
     20 C          61.2932   79.7891   13.9821 C.3     1  UNL1        0.1668
     21 C          58.7668   79.9179   14.5742 C.3     1  UNL1        0.1742
     22 O          60.0725   80.6021   14.2965 O.3     1  UNL1       -0.3490
     23 C          64.4649   90.8574   15.0416 C.3     1  UNL1        0.0795
     24 C          65.5480   91.7569   15.5590 C.3     1  UNL1        0.0264
     25 C          66.1264   92.8206   14.6735 C.3     1  UNL1        0.0729
     26 N          65.6217   92.9847   13.2705 N.3     1  UNL1       -0.2689
     27 C          64.5386   92.0853   12.7531 C.3     1  UNL1        0.0729
     28 C          63.9602   91.0217   13.6386 C.3     1  UNL1        0.0264
     29 C          66.2002   94.0484   12.3851 C.3     1  UNL1        0.0993
     30 C          66.8635   93.6705   11.0939 C.ar    1  UNL1       -0.0018
     31 C          67.5817   92.3589   10.9754 C.ar    1  UNL1        0.0179
     32 C          68.2450   91.9810    9.6842 C.ar    1  UNL1        0.1000
     33 N          68.1902   92.9148    8.5115 N.ar    1  UNL1       -0.2296
     34 C          67.4721   94.2263    8.6300 C.ar    1  UNL1        0.1251
     35 N          67.4173   95.1600    7.4573 N.pl3   1  UNL1       -0.3426
     36 C          66.8087   94.6042    9.9212 C.ar    1  UNL1        0.0310
     37 H          67.8527   94.9119    6.6099 H       1  UNL1        0.1437
     38 H          66.9460   96.0208    7.5351 H       1  UNL1        0.1437
@<TRIPOS>BOND
     1    21    22    1
     2    22    20    1
     3    20    19    1
     4    19     9    1
     5     9    10   ar
     6    10    11    2
     7    10    12   ar
     8    12     1    1
     9     1     2    1
    10     2     3    1
    11     3     4    1
    12     4     5   am
    13     5     6    2
    14     5    23    1
    15    23    24    1
    16    24    25    1
    17    25    26    1
    18    26    29    1
    19    29    30    1
    20    30    31   ar
    21    31    32   ar
    22    32    33   ar
    23    33    34   ar
    24    34    35    1
    25    34    36   ar
    26    26    27    1
    27    27    28    1
    28     4     7    1
    29     7     8    1
    30    12    13   ar
    31    13    14   ar
    32    14    15   ar
    33    15    16   ar
    34    16    17   ar
    35    17    18   ar
    36    18     9   ar
    37     8     1    1
    38    18    13   ar
    39    28    23    1
    40    36    30   ar
    41    35    37    1
    42    35    38    1
@<TRIPOS>MOLECULE
*****
 38 42 0 0 0
SMALL
GASTEIGER

@<TRIPOS>ATOM
      1 C          61.1660   92.3428    2.7936 C.3     1  UNL1        0.0933
      2 C          61.7532   91.4907    3.8796 C.3     1  UNL1        0.0442
      3 C          60.8615   90.8863    4.9235 C.3     1  UNL1        0.0953
      4 N          59.3827   91.1339    4.8814 N.am    1  UNL1       -0.2794
      5 C          58.4910   90.5295    5.9252 C.2     1  UNL1        0.2252
      6 O          57.0122   90.7771    5.8832 O.2     1  UNL1       -0.2749
      7 C          58.7955   91.9860    3.7955 C.3     1  UNL1        0.0953
      8 C          59.6872   92.5904    2.7516 C.3     1  UNL1        0.0442
      9 N          63.9640   93.9804    0.6596 N.ar    1  UNL1       -0.2773
     10 C          63.4463   93.4693    1.9713 C.ar    1  UNL1        0.3316
     11 O          64.1872   93.4785    3.2755 O.2     1  UNL1       -0.2463
     12 N          62.0576   92.9473    1.7498 N.ar    1  UNL1       -0.2817
     13 C          61.7171   93.1358    0.3011 C.ar    1  UNL1        0.0796
     14 C          60.4864   92.8085   -0.4914 C.ar    1  UNL1        0.0188
     15 C          60.4339   93.1197   -1.9578 C.ar    1  UNL1        0.0016
     16 C          61.6122   93.7583   -2.6316 C.ar    1  UNL1        0.0016
     17 C          62.8429   94.0855   -1.8390 C.ar    1  UNL1        0.0188
     18 C          62.8953   93.7743   -0.3727 C.ar    1  UNL1        0.0798
     19 C          65.3135   94.5905    0.4217 C.3     1  UNL1        0.1425
     20 C          65.4292   96.0478    0.0859 C.3     1  UNL1        0.1668
     21 C          65.4587   96.5159   -2.4695 C.3     1  UNL1        0.1742
     22 O          66.1667   96.4770   -1.1477 O.3     1  UNL1       -0.3490
     23 C          59.0783   89.6775    7.0111 C.3     1  UNL1        0.0795
     24 C          59.9747   90.2922    8.0448 C.3     1  UNL1        0.0264
     25 C          60.5619   89.4401    9.1307 C.3     1  UNL1        0.0729
     26 N          60.2527   87.9732    9.1829 N.3     1  UNL1       -0.2689
     27 C          59.3563   87.3585    8.1492 C.3     1  UNL1        0.0729
     28 C          58.7691   88.2106    7.0634 C.3     1  UNL1        0.0264
     29 C          60.8399   87.1212   10.2688 C.3     1  UNL1        0.0993
     30 C          61.8213   86.0399    9.9257 C.ar    1  UNL1       -0.0018
     31 C          62.2969   85.8795    8.5122 C.ar    1  UNL1        0.0179
     32 C          63.2782   84.7982    8.1691 C.ar    1  UNL1        0.1000
     33 N          63.7840   83.8773    9.2396 N.ar    1  UNL1       -0.2296
     34 C          63.3084   84.0376   10.6532 C.ar    1  UNL1        0.1251
     35 N          63.8143   83.1166   11.7236 N.pl3   1  UNL1       -0.3426
     36 C          62.3271   85.1189   10.9962 C.ar    1  UNL1        0.0310
     37 H          64.4583   82.4069   11.4984 H       1  UNL1        0.1437
     38 H          63.5022   83.2218   12.6514 H       1  UNL1        0.1437
@<TRIPOS>BOND
     1    21    22    1
     2    22    20    1
     3    20    19    1
     4    19     9    1
     5     9    10   ar
     6    10    11    2
     7    10    12   ar
     8    12     1    1
     9     1     2    1
    10     2     3    1
    11     3     4    1
    12     4     5   am
    13     5     6    2
    14     5    23    1
    15    23    24    1
    16    24    25    1
    17    25    26    1
    18    26    29    1
    19    29    30    1
    20    30    31   ar
    21    31    32   ar
    22    32    33   ar
    23    33    34   ar
    24    34    35    1
    25    34    36   ar
    26    26    27    1
    27    27    28    1
    28     4     7    1
    29     7     8    1
    30    12    13   ar
    31    13    14   ar
    32    14    15   ar
    33    15    16   ar
    34    16    17   ar
    35    17    18   ar
    36    18     9   ar
    37     8     1    1
    38    18    13   ar
    39    28    23    1
    40    36    30   ar
    41    35    37    1
    42    35    38    1
@<TRIPOS>MOLECULE
*****
 38 42 0 0 0
SMALL
GASTEIGER

@<TRIPOS>ATOM
      1 C          61.2926   92.3851    2.7543 C.3     1  UNL1        0.0933
      2 C          61.8760   91.3747    3.6971 C.3     1  UNL1        0.0442
      3 C          61.0120   90.7431    4.7481 C.3     1  UNL1        0.0953
      4 N          59.5647   91.1219    4.8564 N.am    1  UNL1       -0.2794
      5 C          58.7007   90.4903    5.9074 C.2     1  UNL1        0.2252
      6 O          57.2533   90.8691    6.0156 O.2     1  UNL1       -0.2749
      7 C          58.9813   92.1323    3.9136 C.3     1  UNL1        0.0953
      8 C          59.8454   92.7638    2.8626 C.3     1  UNL1        0.0442
      9 N          64.0155   94.1206    0.6005 N.ar    1  UNL1       -0.2773
     10 C          63.5211   93.6016    1.9181 C.ar    1  UNL1        0.3316
     11 O          64.2611   93.6576    3.2216 O.2     1  UNL1       -0.2463
     12 N          62.1566   93.0167    1.7033 N.ar    1  UNL1       -0.2817
     13 C          61.8078   93.1742    0.2529 C.ar    1  UNL1        0.0796
     14 C          60.5925   92.7846   -0.5352 C.ar    1  UNL1        0.0188
     15 C          60.5261   93.0772   -2.0048 C.ar    1  UNL1        0.0016
     16 C          61.6750   93.7595   -2.6864 C.ar    1  UNL1        0.0016
     17 C          62.8903   94.1491   -1.8983 C.ar    1  UNL1        0.0188
     18 C          62.9567   93.8565   -0.4287 C.ar    1  UNL1        0.0798
     19 C          65.3369   94.7868    0.3551 C.3     1  UNL1        0.1425
     20 C          65.3828   96.1901   -0.1725 C.3     1  UNL1        0.1668
     21 C          65.3482   96.6659   -2.7264 C.3     1  UNL1        0.1742
     22 O          66.1131   96.4883   -1.4484 O.3     1  UNL1       -0.3490
     23 C          59.2841   89.4800    6.8501 C.3     1  UNL1        0.0795
     24 C          60.0724   89.9343    8.0426 C.3     1  UNL1        0.0264
     25 C          60.6558   88.9238    8.9854 C.3     1  UNL1        0.0729
     26 N          60.4509   87.4590    8.7355 N.3     1  UNL1       -0.2689
     27 C          59.6625   87.0047    7.5430 C.3     1  UNL1        0.0729
     28 C          59.0792   88.0151    6.6003 C.3     1  UNL1        0.0264
     29 C          61.0343   86.4487    9.6782 C.3     1  UNL1        0.0993
     30 C          61.8955   86.8987   10.8210 C.ar    1  UNL1       -0.0018
     31 C          62.4632   85.8898   11.7748 C.ar    1  UNL1        0.0179
     32 C          63.3244   86.3398   12.9176 C.ar    1  UNL1        0.1000
     33 N          63.6179   87.7986   13.1064 N.ar    1  UNL1       -0.2296
     34 C          63.0501   88.8075   12.1525 C.ar    1  UNL1        0.1251
     35 N          63.3436   90.2663   12.3415 N.pl3   1  UNL1       -0.3426
     36 C          62.1889   88.3575   11.0098 C.ar    1  UNL1        0.0310
     37 H          63.9088   90.5615   13.0915 H       1  UNL1        0.1437
     38 H          62.9710   90.9284   11.7154 H       1  UNL1        0.1437
@<TRIPOS>BOND
     1    21    22    1
     2    22    20    1
     3    20    19    1
     4    19     9    1
     5     9    10   ar
     6    10    11    2
     7    10    12   ar
     8    12     1    1
     9     1     2    1
    10     2     3    1
    11     3     4    1
    12     4     5   am
    13     5     6    2
    14     5    23    1
    15    23    24    1
    16    24    25    1
    17    25    26    1
    18    26    29    1
    19    29    30    1
    20    30    31   ar
    21    31    32   ar
    22    32    33   ar
    23    33    34   ar
    24    34    35    1
    25    34    36   ar
    26    26    27    1
    27    27    28    1
    28     4     7    1
    29     7     8    1
    30    12    13   ar
    31    13    14   ar
    32    14    15   ar
    33    15    16   ar
    34    16    17   ar
    35    17    18   ar
    36    18     9   ar
    37     8     1    1
    38    18    13   ar
    39    28    23    1
    40    36    30   ar
    41    35    37    1
    42    35    38    1
@<TRIPOS>MOLECULE
*****
 38 42 0 0 0
SMALL
GASTEIGER

@<TRIPOS>ATOM
      1 C          61.6831   88.1957   10.8269 C.3     1  UNL1        0.0933
      2 C          61.8203   89.3895    9.9290 C.3     1  UNL1        0.0442
      3 C          60.9876   89.4924    8.6856 C.3     1  UNL1        0.0953
      4 N          60.0178   88.4016    8.3400 N.am    1  UNL1       -0.2794
      5 C          59.1851   88.5044    7.0966 C.2     1  UNL1        0.2252
      6 O          58.2153   87.4136    6.7510 O.2     1  UNL1       -0.2749
      7 C          59.8806   87.2078    9.2379 C.3     1  UNL1        0.0953
      8 C          60.7132   87.1049   10.4813 C.3     1  UNL1        0.0442
      9 N          63.7168   88.6712   14.0984 N.ar    1  UNL1       -0.2773
     10 C          62.8754   89.2245   12.9867 C.ar    1  UNL1        0.3316
     11 O          62.4655   90.6578   12.8207 O.2     1  UNL1       -0.2463
     12 N          62.5157   88.0928   12.0703 N.ar    1  UNL1       -0.2817
     13 C          63.1349   86.8401   12.6156 C.ar    1  UNL1        0.0796
     14 C          63.1187   85.4200   12.1327 C.ar    1  UNL1        0.0188
     15 C          63.8448   84.3575   12.9032 C.ar    1  UNL1        0.0016
     16 C          64.5871   84.7150   14.1567 C.ar    1  UNL1        0.0016
     17 C          64.6034   86.1350   14.6396 C.ar    1  UNL1        0.0188
     18 C          63.8773   87.1976   13.8690 C.ar    1  UNL1        0.0798
     19 C          64.2962   89.4541   15.2392 C.3     1  UNL1        0.1425
     20 C          63.4795   89.6967   16.4737 C.3     1  UNL1        0.1668
     21 C          62.4826   87.4422   17.2942 C.3     1  UNL1        0.1742
     22 O          63.3701   88.6298   17.5223 O.3     1  UNL1       -0.3490
     23 C          59.3224   89.6982    6.1988 C.3     1  UNL1        0.0795
     24 C          58.1163   90.5213    5.8556 C.3     1  UNL1        0.0264
     25 C          58.2536   91.7151    4.9578 C.3     1  UNL1        0.0729
     26 N          59.5971   92.0858    4.4031 N.3     1  UNL1       -0.2689
     27 C          60.8033   91.2627    4.7463 C.3     1  UNL1        0.0729
     28 C          60.6659   90.0689    5.6441 C.3     1  UNL1        0.0264
     29 C          59.7344   93.2795    3.5053 C.3     1  UNL1        0.0993
     30 C          60.2285   93.1079    2.0995 C.ar    1  UNL1       -0.0018
     31 C          61.6843   93.2920    1.7884 C.ar    1  UNL1        0.0179
     32 C          62.1784   93.1203    0.3826 C.ar    1  UNL1        0.1000
     33 N          61.2167   92.7646   -0.7122 N.ar    1  UNL1       -0.2296
     34 C          59.7609   92.5804   -0.4011 C.ar    1  UNL1        0.1251
     35 N          58.7992   92.2247   -1.4959 N.pl3   1  UNL1       -0.3426
     36 C          59.2668   92.7521    1.0047 C.ar    1  UNL1        0.0310
     37 H          59.1236   92.1120   -2.4186 H       1  UNL1        0.1437
     38 H          57.8438   92.1038   -1.2918 H       1  UNL1        0.1437
@<TRIPOS>BOND
     1    21    22    1
     2    22    20    1
     3    20    19    1
     4    19     9    1
     5     9    10   ar
     6    10    11    2
     7    10    12   ar
     8    12     1    1
     9     1     2    1
    10     2     3    1
    11     3     4    1
    12     4     5   am
    13     5     6    2
    14     5    23    1
    15    23    24    1
    16    24    25    1
    17    25    26    1
    18    26    29    1
    19    29    30    1
    20    30    31   ar
    21    31    32   ar
    22    32    33   ar
    23    33    34   ar
    24    34    35    1
    25    34    36   ar
    26    26    27    1
    27    27    28    1
    28     4     7    1
    29     7     8    1
    30    12    13   ar
    31    13    14   ar
    32    14    15   ar
    33    15    16   ar
    34    16    17   ar
    35    17    18   ar
    36    18     9   ar
    37     8     1    1
    38    18    13   ar
    39    28    23    1
    40    36    30   ar
    41    35    37    1
    42    35    38    1
@<TRIPOS>MOLECULE
*****
 38 42 0 0 0
SMALL
GASTEIGER

@<TRIPOS>ATOM
      1 C          62.6201   85.1072   11.6125 C.3     1  UNL1        0.0933
      2 C          63.4911   85.8691   12.5671 C.3     1  UNL1        0.0442
      3 C          63.3616   87.3596   12.6741 C.3     1  UNL1        0.0953
      4 N          62.3612   88.0883   11.8266 N.am    1  UNL1       -0.2794
      5 C          62.2317   89.5789   11.9337 C.2     1  UNL1        0.2252
      6 O          61.2314   90.3076   11.0862 O.2     1  UNL1       -0.2749
      7 C          61.4904   87.3265   10.8721 C.3     1  UNL1        0.0953
      8 C          61.6198   85.8359   10.7651 C.3     1  UNL1        0.0442
      9 N          63.2028   81.3954   10.6388 N.ar    1  UNL1       -0.2773
     10 C          63.2366   82.8577   10.3067 C.ar    1  UNL1        0.3316
     11 O          63.6796   83.4562    9.0046 O.2     1  UNL1       -0.2463
     12 N          62.7496   83.6166   11.5054 N.ar    1  UNL1       -0.2817
     13 C          62.4148   82.6233   12.5784 C.ar    1  UNL1        0.0796
     14 C          61.8912   82.7914   13.9739 C.ar    1  UNL1        0.0188
     15 C          61.6476   81.5868   14.8337 C.ar    1  UNL1        0.0016
     16 C          61.9276   80.2140   14.2981 C.ar    1  UNL1        0.0016
     17 C          62.4513   80.0458   12.9026 C.ar    1  UNL1        0.0188
     18 C          62.6949   81.2504   12.0428 C.ar    1  UNL1        0.0798
     19 C          63.6060   80.2746    9.7270 C.3     1  UNL1        0.1425
     20 C          62.6738   79.1222    9.4973 C.3     1  UNL1        0.1668
     21 C          63.3426   76.7129   10.2029 C.3     1  UNL1        0.1742
     22 O          62.6170   77.9950   10.4853 O.3     1  UNL1       -0.3490
     23 C          63.1026   90.3407   12.8882 C.3     1  UNL1        0.0795
     24 C          63.0047   90.0821   14.3625 C.3     1  UNL1        0.0264
     25 C          63.8757   90.8440   15.3171 C.3     1  UNL1        0.0729
     26 N          64.8446   91.8644   14.7973 N.3     1  UNL1       -0.2689
     27 C          64.9425   92.1229   13.3230 C.3     1  UNL1        0.0729
     28 C          64.0715   91.3611   12.3685 C.3     1  UNL1        0.0264
     29 C          65.7155   92.6261   15.7518 C.3     1  UNL1        0.0993
     30 C          67.1708   92.8223   15.4461 C.ar    1  UNL1       -0.0018
     31 C          68.0028   93.7262   16.3067 C.ar    1  UNL1        0.0179
     32 C          69.4581   93.9224   16.0010 C.ar    1  UNL1        0.1000
     33 N          70.0815   93.2147   14.8346 N.ar    1  UNL1       -0.2296
     34 C          69.2495   92.3108   13.9739 C.ar    1  UNL1        0.1251
     35 N          69.8729   91.6032   12.8075 N.pl3   1  UNL1       -0.3426
     36 C          67.7942   92.1146   14.2796 C.ar    1  UNL1        0.0310
     37 H          70.8281   91.7320   12.6069 H       1  UNL1        0.1437
     38 H          69.3269   91.0099   12.2426 H       1  UNL1        0.1437
@<TRIPOS>BOND
     1    21    22    1
     2    22    20    1
     3    20    19    1
     4    19     9    1
     5     9    10   ar
     6    10    11    2
     7    10    12   ar
     8    12     1    1
     9     1     2    1
    10     2     3    1
    11     3     4    1
    12     4     5   am
    13     5     6    2
    14     5    23    1
    15    23    24    1
    16    24    25    1
    17    25    26    1
    18    26    29    1
    19    29    30    1
    20    30    31   ar
    21    31    32   ar
    22    32    33   ar
    23    33    34   ar
    24    34    35    1
    25    34    36   ar
    26    26    27    1
    27    27    28    1
    28     4     7    1
    29     7     8    1
    30    12    13   ar
    31    13    14   ar
    32    14    15   ar
    33    15    16   ar
    34    16    17   ar
    35    17    18   ar
    36    18     9   ar
    37     8     1    1
    38    18    13   ar
    39    28    23    1
    40    36    30   ar
    41    35    37    1
    42    35    38    1
@<TRIPOS>MOLECULE
*****
 38 42 0 0 0
SMALL
GASTEIGER

@<TRIPOS>ATOM
      1 C          61.3366   92.5691    2.5830 C.3     1  UNL1        0.0933
      2 C          61.9174   91.5580    3.5266 C.3     1  UNL1        0.0442
      3 C          61.0513   90.9277    4.5766 C.3     1  UNL1        0.0953
      4 N          59.6043   91.3086    4.6832 N.am    1  UNL1       -0.2794
      5 C          58.7382   90.6784    5.7332 C.2     1  UNL1        0.2252
      6 O          57.2913   91.0593    5.8398 O.2     1  UNL1       -0.2749
      7 C          59.0236   92.3197    3.7396 C.3     1  UNL1        0.0953
      8 C          59.8897   92.9500    2.6895 C.3     1  UNL1        0.0442
      9 N          63.1648   93.7924   -0.6149 N.ar    1  UNL1       -0.2773
     10 C          62.1119   92.9601    0.0549 C.ar    1  UNL1        0.3316
     11 O          61.1390   92.0485   -0.6325 O.2     1  UNL1       -0.2463
     12 N          62.2027   93.1994    1.5329 N.ar    1  UNL1       -0.2817
     13 C          63.3117   94.1796    1.7765 C.ar    1  UNL1        0.0796
     14 C          63.8569   94.7857    3.0356 C.ar    1  UNL1        0.0188
     15 C          64.9967   95.7584    2.9672 C.ar    1  UNL1        0.0016
     16 C          65.5913   96.1249    1.6398 C.ar    1  UNL1        0.0016
     17 C          65.0461   95.5187    0.3807 C.ar    1  UNL1        0.0188
     18 C          63.9063   94.5461    0.4491 C.ar    1  UNL1        0.0798
     19 C          63.4296   93.8593   -2.0898 C.3     1  UNL1        0.1425
     20 C          62.4583   94.5565   -2.9954 C.3     1  UNL1        0.1668
     21 C          59.9294   93.9877   -3.1712 C.3     1  UNL1        0.1742
     22 O          61.3417   93.7850   -3.6341 O.3     1  UNL1       -0.3490
     23 C          59.3191   89.6673    6.6767 C.3     1  UNL1        0.0795
     24 C          59.3228   88.2132    6.3086 C.3     1  UNL1        0.0264
     25 C          59.9037   87.2021    7.2522 C.3     1  UNL1        0.0729
     26 N          60.4809   87.6451    8.5639 N.3     1  UNL1       -0.2689
     27 C          60.4772   89.0992    8.9321 C.3     1  UNL1        0.0729
     28 C          59.8963   90.1103    7.9885 C.3     1  UNL1        0.0264
     29 C          61.0618   86.6340    9.5074 C.3     1  UNL1        0.0993
     30 C          61.8977   87.0849   10.6684 C.ar    1  UNL1       -0.0018
     31 C          62.4150   86.0804   11.6550 C.ar    1  UNL1        0.0179
     32 C          63.2510   86.5313   12.8160 C.ar    1  UNL1        0.1000
     33 N          63.5695   87.9867   12.9904 N.ar    1  UNL1       -0.2296
     34 C          63.0521   88.9912   12.0038 C.ar    1  UNL1        0.1251
     35 N          63.3707   90.4465   12.1783 N.pl3   1  UNL1       -0.3426
     36 C          62.2162   88.5403   10.8428 C.ar    1  UNL1        0.0310
     37 H          63.9193   90.7424   12.9404 H       1  UNL1        0.1437
     38 H          63.0311   91.1058   11.5309 H       1  UNL1        0.1437
@<TRIPOS>BOND
     1    21    22    1
     2    22    20    1
     3    20    19    1
     4    19     9    1
     5     9    10   ar
     6    10    11    2
     7    10    12   ar
     8    12     1    1
     9     1     2    1
    10     2     3    1
    11     3     4    1
    12     4     5   am
    13     5     6    2
    14     5    23    1
    15    23    24    1
    16    24    25    1
    17    25    26    1
    18    26    29    1
    19    29    30    1
    20    30    31   ar
    21    31    32   ar
    22    32    33   ar
    23    33    34   ar
    24    34    35    1
    25    34    36   ar
    26    26    27    1
    27    27    28    1
    28     4     7    1
    29     7     8    1
    30    12    13   ar
    31    13    14   ar
    32    14    15   ar
    33    15    16   ar
    34    16    17   ar
    35    17    18   ar
    36    18     9   ar
    37     8     1    1
    38    18    13   ar
    39    28    23    1
    40    36    30   ar
    41    35    37    1
    42    35    38    1
@<TRIPOS>MOLECULE
*****
 38 42 0 0 0
SMALL
GASTEIGER

@<TRIPOS>ATOM
      1 C          61.1982   92.4447    2.6428 C.3     1  UNL1        0.0933
      2 C          61.8095   91.6255    3.7408 C.3     1  UNL1        0.0442
      3 C          60.9372   91.0251    4.8032 C.3     1  UNL1        0.0953
      4 N          59.4536   91.2438    4.7676 N.am    1  UNL1       -0.2794
      5 C          58.5813   90.6433    5.8299 C.2     1  UNL1        0.2252
      6 O          57.0977   90.8620    5.7943 O.2     1  UNL1       -0.2749
      7 C          58.8424   92.0629    3.6696 C.3     1  UNL1        0.0953
      8 C          59.7147   92.6633    2.6073 C.3     1  UNL1        0.0442
      9 N          63.0251   93.6015   -0.5804 N.ar    1  UNL1       -0.2773
     10 C          61.9557   92.8032    0.1046 C.ar    1  UNL1        0.3316
     11 O          60.9485   91.9184   -0.5681 O.2     1  UNL1       -0.2463
     12 N          62.0706   93.0451    1.5805 N.ar    1  UNL1       -0.2817
     13 C          63.2108   93.9928    1.8076 C.ar    1  UNL1        0.0796
     14 C          63.7882   94.5871    3.0580 C.ar    1  UNL1        0.0188
     15 C          64.9554   95.5252    2.9728 C.ar    1  UNL1        0.0016
     16 C          65.5454   95.8691    1.6372 C.ar    1  UNL1        0.0016
     17 C          64.9681   95.2748    0.3869 C.ar    1  UNL1        0.0188
     18 C          63.8008   94.3367    0.4721 C.ar    1  UNL1        0.0798
     19 C          63.2749   93.6551   -2.0585 C.3     1  UNL1        0.1425
     20 C          62.4722   94.5826   -2.9217 C.3     1  UNL1        0.1668
     21 C          59.8788   94.4805   -2.8038 C.3     1  UNL1        0.1742
     22 O          61.1718   95.1370   -2.4201 O.3     1  UNL1       -0.3490
     23 C          59.1926   89.8243    6.9278 C.3     1  UNL1        0.0795
     24 C          60.0401   90.4855    7.9739 C.3     1  UNL1        0.0264
     25 C          60.6515   89.6663    9.0718 C.3     1  UNL1        0.0729
     26 N          60.4151   88.1860    9.1236 N.3     1  UNL1       -0.2689
     27 C          59.5676   87.5247    8.0775 C.3     1  UNL1        0.0729
     28 C          58.9563   88.3439    6.9796 C.3     1  UNL1        0.0264
     29 C          61.0264   87.3669   10.2215 C.3     1  UNL1        0.0993
     30 C          61.9028   86.1969    9.8854 C.ar    1  UNL1       -0.0018
     31 C          62.3497   85.9765    8.4706 C.ar    1  UNL1        0.0179
     32 C          63.2261   84.8065    8.1345 C.ar    1  UNL1        0.1000
     33 N          63.6556   83.8569    9.2133 N.ar    1  UNL1       -0.2296
     34 C          63.2087   84.0773   10.6281 C.ar    1  UNL1        0.1251
     35 N          63.6383   83.1276   11.7068 N.pl3   1  UNL1       -0.3426
     36 C          62.3323   85.2473   10.9642 C.ar    1  UNL1        0.0310
     37 H          64.2135   82.3597   11.4861 H       1  UNL1        0.1437
     38 H          63.3450   83.2722   12.6354 H       1  UNL1        0.1437
@<TRIPOS>BOND
     1    21    22    1
     2    22    20    1
     3    20    19    1
     4    19     9    1
     5     9    10   ar
     6    10    11    2
     7    10    12   ar
     8    12     1    1
     9     1     2    1
    10     2     3    1
    11     3     4    1
    12     4     5   am
    13     5     6    2
    14     5    23    1
    15    23    24    1
    16    24    25    1
    17    25    26    1
    18    26    29    1
    19    29    30    1
    20    30    31   ar
    21    31    32   ar
    22    32    33   ar
    23    33    34   ar
    24    34    35    1
    25    34    36   ar
    26    26    27    1
    27    27    28    1
    28     4     7    1
    29     7     8    1
    30    12    13   ar
    31    13    14   ar
    32    14    15   ar
    33    15    16   ar
    34    16    17   ar
    35    17    18   ar
    36    18     9   ar
    37     8     1    1
    38    18    13   ar
    39    28    23    1
    40    36    30   ar
    41    35    37    1
    42    35    38    1
