@<TRIPOS>MOLECULE
*****
 33 36 0 0 0
SMALL
GASTEIGER

@<TRIPOS>ATOM
      1 N          64.8978   90.7440   13.8354 N.pl3   1  UNL1       -0.2860
      2 N          63.6403   86.4319   13.5631 N.pl3   1  UNL1       -0.3074
      3 C          63.1976   87.4098   12.5155 C.3     1  UNL1        0.0925
      4 C          63.6168   88.8472   12.6062 C.3     1  UNL1        0.0415
      5 C          64.4786   89.3066   13.7446 C.3     1  UNL1        0.0807
      6 C          64.9213   88.3287   14.7923 C.3     1  UNL1        0.0415
      7 C          64.5021   86.8913   14.7016 C.3     1  UNL1        0.0925
      8 C          62.3828   82.1197   13.2909 C.ar    1  UNL1        0.0715
      9 C          62.7936   82.8608   12.0531 C.ar    1  UNL1        0.0051
     10 C          63.2127   84.2981   12.1439 C.ar    1  UNL1        0.0145
     11 C          63.2211   84.9945   13.4724 C.ar    1  UNL1        0.0478
     12 C          62.8104   84.2534   14.7102 C.ar    1  UNL1        0.0145
     13 C          62.3912   82.8161   14.6194 C.ar    1  UNL1        0.0051
     14 F          61.5445   79.2449   13.1094 F       1  UNL1       -0.1659
     15 C          61.9637   80.6823   13.2001 C.3     1  UNL1        0.4186
     16 F          61.0447   80.8765   14.3697 F       1  UNL1       -0.1659
     17 F          62.8826   80.4882   12.0306 F       1  UNL1       -0.1659
     18 C          65.4761   91.4338   12.6356 C.ar    1  UNL1        0.0516
     19 C          66.9568   91.6533   12.5378 C.ar    1  UNL1        0.0148
     20 C          67.5351   92.3431   11.3380 C.ar    1  UNL1        0.0051
     21 C          66.6329   92.8134   10.2358 C.ar    1  UNL1        0.0715
     22 C          65.1523   92.5938   10.3335 C.ar    1  UNL1        0.0051
     23 C          64.5739   91.9040   11.5334 C.ar    1  UNL1        0.0148
     24 C          67.2113   93.5032    9.0359 C.3     1  UNL1        0.4186
     25 F          67.7897   94.1930    7.8361 F       1  UNL1       -0.1659
     26 F          68.1431   92.3476    8.8207 F       1  UNL1       -0.1659
     27 F          66.2795   94.6587    9.2511 F       1  UNL1       -0.1659
     28 C          64.7386   91.4916   15.1260 C.ar    1  UNL1        0.0904
     29 C          65.8776   92.3034   15.6679 C.ar    1  UNL1        0.1170
     30 N          65.7184   93.0511   16.9586 N.ar    1  UNL1       -0.2211
     31 C          64.4202   92.9869   17.7073 C.ar    1  UNL1        0.1990
     32 N          63.2812   92.1750   17.1654 N.ar    1  UNL1       -0.2211
     33 C          63.4404   91.4274   15.8748 C.ar    1  UNL1        0.1170
@<TRIPOS>BOND
     1    14    15    1
     2    15    16    1
     3    15    17    1
     4    15     8    1
     5     8     9   ar
     6     9    10   ar
     7    10    11   ar
     8    11     2    1
     9     2     3    1
    10     3     4    1
    11     4     5    1
    12     5     1    1
    13     1    18    1
    14    18    19   ar
    15    19    20   ar
    16    20    21   ar
    17    21    24    1
    18    24    25    1
    19    24    26    1
    20    24    27    1
    21    21    22   ar
    22    22    23   ar
    23     1    28    1
    24    28    29   ar
    25    29    30   ar
    26    30    31   ar
    27    31    32   ar
    28    32    33   ar
    29     5     6    1
    30     6     7    1
    31    11    12   ar
    32    12    13   ar
    33    13     8   ar
    34     7     2    1
    35    23    18   ar
    36    33    28   ar
@<TRIPOS>MOLECULE
*****
 33 36 0 0 0
SMALL
GASTEIGER

@<TRIPOS>ATOM
      1 N          62.1588   86.5070   11.7889 N.pl3   1  UNL1       -0.2860
      2 N          64.7372   89.7424   13.5592 N.pl3   1  UNL1       -0.3074
      3 C          63.9358   90.0154   12.3210 C.3     1  UNL1        0.0925
      4 C          63.0764   88.9369   11.7309 C.3     1  UNL1        0.0415
      5 C          63.0183   87.5855   12.3790 C.3     1  UNL1        0.0807
      6 C          63.8197   87.3124   13.6172 C.3     1  UNL1        0.0415
      7 C          64.6791   88.3909   14.2073 C.3     1  UNL1        0.0925
      8 C          67.3156   92.9778   15.3295 C.ar    1  UNL1        0.0715
      9 C          67.7302   92.3006   14.0569 C.ar    1  UNL1        0.0051
     10 C          66.8707   91.2221   13.4668 C.ar    1  UNL1        0.0145
     11 C          65.5967   90.8208   14.1493 C.ar    1  UNL1        0.0478
     12 C          65.1822   91.4980   15.4219 C.ar    1  UNL1        0.0145
     13 C          66.0416   92.5765   16.0120 C.ar    1  UNL1        0.0051
     14 F          69.0346   95.1347   16.5097 F       1  UNL1       -0.1659
     15 C          68.1751   94.0562   15.9196 C.3     1  UNL1        0.4186
     16 F          67.4718   95.0781   15.0763 F       1  UNL1       -0.1659
     17 F          68.8784   93.0343   16.7629 F       1  UNL1       -0.1659
     18 C          62.2818   85.0959   12.2823 C.ar    1  UNL1        0.0516
     19 C          62.1169   84.7949   13.7426 C.ar    1  UNL1        0.0148
     20 C          62.2398   83.3837   14.2360 C.ar    1  UNL1        0.0051
     21 C          62.5277   82.2735   13.2693 C.ar    1  UNL1        0.0715
     22 C          62.6926   82.5745   11.8091 C.ar    1  UNL1        0.0051
     23 C          62.5696   83.9857   11.3156 C.ar    1  UNL1        0.0148
     24 C          62.6506   80.8623   13.7628 C.3     1  UNL1        0.4186
     25 F          62.7736   79.4512   14.2563 F       1  UNL1       -0.1659
     26 F          61.1864   80.8486   14.0883 F       1  UNL1       -0.1659
     27 F          64.1148   80.8761   13.4373 F       1  UNL1       -0.1659
     28 C          61.1764   86.8397   10.7053 C.ar    1  UNL1        0.0904
     29 C          61.2819   86.1717    9.3664 C.ar    1  UNL1        0.1170
     30 N          60.2994   86.5045    8.2828 N.ar    1  UNL1       -0.2211
     31 C          59.2115   87.5051    8.5382 C.ar    1  UNL1        0.1990
     32 N          59.1060   88.1730    9.8771 N.ar    1  UNL1       -0.2211
     33 C          60.0884   87.8403   10.9607 C.ar    1  UNL1        0.1170
@<TRIPOS>BOND
     1    14    15    1
     2    15    16    1
     3    15    17    1
     4    15     8    1
     5     8     9   ar
     6     9    10   ar
     7    10    11   ar
     8    11     2    1
     9     2     3    1
    10     3     4    1
    11     4     5    1
    12     5     1    1
    13     1    18    1
    14    18    19   ar
    15    19    20   ar
    16    20    21   ar
    17    21    24    1
    18    24    25    1
    19    24    26    1
    20    24    27    1
    21    21    22   ar
    22    22    23   ar
    23     1    28    1
    24    28    29   ar
    25    29    30   ar
    26    30    31   ar
    27    31    32   ar
    28    32    33   ar
    29     5     6    1
    30     6     7    1
    31    11    12   ar
    32    12    13   ar
    33    13     8   ar
    34     7     2    1
    35    23    18   ar
    36    33    28   ar
@<TRIPOS>MOLECULE
*****
 33 36 0 0 0
SMALL
GASTEIGER

@<TRIPOS>ATOM
      1 N          62.1608   86.5067   11.7897 N.pl3   1  UNL1       -0.2860
      2 N          64.7389   89.7429   13.5590 N.pl3   1  UNL1       -0.3074
      3 C          64.6818   88.3913   14.2069 C.3     1  UNL1        0.0925
      4 C          63.8224   87.3126   13.6171 C.3     1  UNL1        0.0415
      5 C          63.0201   87.5855   12.3795 C.3     1  UNL1        0.0807
      6 C          63.0772   88.9371   11.7316 C.3     1  UNL1        0.0415
      7 C          63.9366   90.0158   12.3213 C.3     1  UNL1        0.0925
      8 C          67.3170   92.9791   15.3282 C.ar    1  UNL1        0.0715
      9 C          67.7275   92.3072   14.0516 C.ar    1  UNL1        0.0051
     10 C          66.8681   91.2284   13.4618 C.ar    1  UNL1        0.0145
     11 C          65.5983   90.8217   14.1487 C.ar    1  UNL1        0.0478
     12 C          65.1878   91.4936   15.4254 C.ar    1  UNL1        0.0145
     13 C          66.0471   92.5723   16.0151 C.ar    1  UNL1        0.0051
     14 F          69.0358   95.1366   16.5077 F       1  UNL1       -0.1659
     15 C          68.1764   94.0579   15.9180 C.3     1  UNL1        0.4186
     16 F          68.8837   93.0355   16.7574 F       1  UNL1       -0.1659
     17 F          67.4691   95.0802   15.0786 F       1  UNL1       -0.1659
     18 C          62.2816   85.0963   12.2858 C.ar    1  UNL1        0.0516
     19 C          62.5669   83.9837   11.3209 C.ar    1  UNL1        0.0148
     20 C          62.6878   82.5734   11.8170 C.ar    1  UNL1        0.0051
     21 C          62.5234   82.2755   13.2779 C.ar    1  UNL1        0.0715
     22 C          62.2381   83.3880   14.2427 C.ar    1  UNL1        0.0051
     23 C          62.1172   84.7984   13.7467 C.ar    1  UNL1        0.0148
     24 C          62.6442   80.8650   13.7740 C.3     1  UNL1        0.4186
     25 F          62.7651   79.4546   14.2700 F       1  UNL1       -0.1659
     26 F          64.1023   80.8661   13.4220 F       1  UNL1       -0.1659
     27 F          61.1861   80.8639   14.1259 F       1  UNL1       -0.1659
     28 C          61.1805   86.8384   10.7039 C.ar    1  UNL1        0.0904
     29 C          60.0923   87.8395   10.9560 C.ar    1  UNL1        0.1170
     30 N          59.1120   88.1711    9.8700 N.ar    1  UNL1       -0.2211
     31 C          59.2200   87.5017    8.5321 C.ar    1  UNL1        0.1990
     32 N          60.3082   86.5006    8.2800 N.ar    1  UNL1       -0.2211
     33 C          61.2885   86.1689    9.3658 C.ar    1  UNL1        0.1170
@<TRIPOS>BOND
     1    14    15    1
     2    15    16    1
     3    15    17    1
     4    15     8    1
     5     8     9   ar
     6     9    10   ar
     7    10    11   ar
     8    11     2    1
     9     2     3    1
    10     3     4    1
    11     4     5    1
    12     5     1    1
    13     1    18    1
    14    18    19   ar
    15    19    20   ar
    16    20    21   ar
    17    21    24    1
    18    24    25    1
    19    24    26    1
    20    24    27    1
    21    21    22   ar
    22    22    23   ar
    23     1    28    1
    24    28    29   ar
    25    29    30   ar
    26    30    31   ar
    27    31    32   ar
    28    32    33   ar
    29     5     6    1
    30     6     7    1
    31    11    12   ar
    32    12    13   ar
    33    13     8   ar
    34     7     2    1
    35    23    18   ar
    36    33    28   ar
@<TRIPOS>MOLECULE
*****
 33 36 0 0 0
SMALL
GASTEIGER

@<TRIPOS>ATOM
      1 N          62.4635   88.9532   12.3895 N.pl3   1  UNL1       -0.2860
      2 N          62.7324   84.5182   11.6767 N.pl3   1  UNL1       -0.3074
      3 C          63.4028   85.1277   12.8721 C.3     1  UNL1        0.0925
      4 C          63.3132   86.6060   13.1097 C.3     1  UNL1        0.0415
      5 C          62.5532   87.4749   12.1519 C.3     1  UNL1        0.0807
      6 C          61.8828   86.8654   10.9565 C.3     1  UNL1        0.0415
      7 C          61.9724   85.3870   10.7189 C.3     1  UNL1        0.0925
      8 C          63.0013   80.0831   10.9639 C.ar    1  UNL1        0.0715
      9 C          62.4688   80.6025   12.2665 C.ar    1  UNL1        0.0051
     10 C          62.3791   82.0808   12.5041 C.ar    1  UNL1        0.0145
     11 C          62.8221   83.0398   11.4391 C.ar    1  UNL1        0.0478
     12 C          63.3546   82.5205   10.1366 C.ar    1  UNL1        0.0145
     13 C          63.4442   81.0421    9.8990 C.ar    1  UNL1        0.0051
     14 F          63.1806   77.1264   10.4887 F       1  UNL1       -0.1659
     15 C          63.0909   78.6048   10.7263 C.3     1  UNL1        0.4186
     16 F          63.4204   78.8565    9.2848 F       1  UNL1       -0.1659
     17 F          62.7615   78.3531   12.1679 F       1  UNL1       -0.1659
     18 C          63.6453   89.6980   12.9360 C.ar    1  UNL1        0.0516
     19 C          64.2548   89.2832   14.2423 C.ar    1  UNL1        0.0148
     20 C          65.4365   90.0280   14.7888 C.ar    1  UNL1        0.0051
     21 C          66.0089   91.1877   14.0289 C.ar    1  UNL1        0.0715
     22 C          65.3996   91.6026   12.7226 C.ar    1  UNL1        0.0051
     23 C          64.2177   90.8577   12.1761 C.ar    1  UNL1        0.0148
     24 C          67.1908   91.9325   14.5754 C.3     1  UNL1        0.4186
     25 F          68.3726   92.6773   15.1218 F       1  UNL1       -0.1659
     26 F          66.4116   92.2596   15.8146 F       1  UNL1       -0.1659
     27 F          67.9699   91.6053   13.3361 F       1  UNL1       -0.1659
     28 C          61.1921   89.6868   12.0807 C.ar    1  UNL1        0.0904
     29 C          59.9359   89.3595   12.8323 C.ar    1  UNL1        0.1170
     30 N          58.6645   90.0931   12.5234 N.ar    1  UNL1       -0.2211
     31 C          58.6493   91.1539   11.4630 C.ar    1  UNL1        0.1990
     32 N          59.9055   91.4812   10.7115 N.ar    1  UNL1       -0.2211
     33 C          61.1769   90.7476   11.0203 C.ar    1  UNL1        0.1170
@<TRIPOS>BOND
     1    14    15    1
     2    15    16    1
     3    15    17    1
     4    15     8    1
     5     8     9   ar
     6     9    10   ar
     7    10    11   ar
     8    11     2    1
     9     2     3    1
    10     3     4    1
    11     4     5    1
    12     5     1    1
    13     1    18    1
    14    18    19   ar
    15    19    20   ar
    16    20    21   ar
    17    21    24    1
    18    24    25    1
    19    24    26    1
    20    24    27    1
    21    21    22   ar
    22    22    23   ar
    23     1    28    1
    24    28    29   ar
    25    29    30   ar
    26    30    31   ar
    27    31    32   ar
    28    32    33   ar
    29     5     6    1
    30     6     7    1
    31    11    12   ar
    32    12    13   ar
    33    13     8   ar
    34     7     2    1
    35    23    18   ar
    36    33    28   ar
