@<TRIPOS>MOLECULE
*****
 39 43 0 0 0
SMALL
GASTEIGER

@<TRIPOS>ATOM
      1 C          61.9480   88.6958   11.1371 C.3     1  UNL1        0.0822
      2 C          62.9987   89.6766   11.5664 C.ar    1  UNL1        0.0375
      3 C          63.3547   90.8313   10.6777 C.ar    1  UNL1        0.0023
      4 C          64.4053   91.8121   11.1070 C.ar    1  UNL1        0.0181
      5 C          64.7614   92.9668   10.2182 C.ar    1  UNL1        0.0082
      6 C          65.8120   93.9475   10.6475 C.ar    1  UNL1        0.0347
      7 BR         66.1680   95.1023    9.7587 Br      1  UNL1       -0.0490
      8 C          66.5065   93.7736   11.9656 C.ar    1  UNL1        0.0082
      9 C          66.1505   92.6189   12.8543 C.ar    1  UNL1        0.0197
     10 C          65.0999   91.6382   12.4250 C.ar    1  UNL1        0.0844
     11 N          64.7438   90.4834   13.3138 N.ar    1  UNL1       -0.2119
     12 C          63.6933   89.5027   12.8845 C.ar    1  UNL1        0.2211
     13 O          63.3372   88.3480   13.7733 O.3     1  UNL1       -0.4563
     14 C          64.3824   87.7283   14.6528 C.3     1  UNL1        0.2542
     15 C          62.3489   87.3964   10.5042 C.ar    1  UNL1        0.0215
     16 C          62.7164   87.3521    9.0506 C.ar    1  UNL1       -0.0007
     17 C          63.1173   86.0526    8.4176 C.ar    1  UNL1        0.0030
     18 C          63.1508   84.7974    9.2382 C.ar    1  UNL1        0.0402
     19 C          62.7833   84.8418   10.6919 C.ar    1  UNL1        0.1761
     20 C          62.3824   86.1412   11.3249 C.ar    1  UNL1        0.1728
     21 O          62.0752   85.8779   12.7692 O.3     1  UNL1       -0.4349
     22 C          62.2862   84.4157   13.0289 C.3     1  UNL1        0.4294
     23 O          62.7239   83.7753   11.7451 O.3     1  UNL1       -0.4346
     24 C          60.4965   89.0145   11.3408 C.3     1  UNL1        0.1321
     25 O          60.7964   89.4920   12.7308 O.3     1  UNL1       -0.3805
     26 H          59.9761   89.7892   13.1546 H       1  UNL1        0.2108
     27 C          59.9676   89.0161    7.4076 C.ar    1  UNL1        0.2247
     28 C          59.5968   87.5822    7.1708 C.ar    1  UNL1        0.0577
     29 C          59.5259   86.6256    8.3240 C.ar    1  UNL1        0.0061
     30 C          59.8258   87.1031    9.7140 C.ar    1  UNL1        0.0173
     31 C          60.1966   88.5371    9.9508 C.ar    1  UNL1        0.0868
     32 N          60.2675   89.4936    8.7976 N.ar    1  UNL1       -0.2137
     33 C          58.7765   90.5014    5.6397 C.3     1  UNL1        0.2542
     34 O          60.0385   89.9728    6.2544 O.3     1  UNL1       -0.4561
     35 C          59.0450   89.3332   11.5445 C.3     1  UNL1        0.0506
     36 C          58.5445   89.7133   12.9065 C.3     1  UNL1        0.0750
     37 N          58.0441   88.6546   13.8440 N.3     1  UNL1       -0.2702
     38 C          58.8340   88.3043   15.0701 C.3     1  UNL1        0.0897
     39 C          56.7538   87.9463   13.5554 C.3     1  UNL1        0.0897
@<TRIPOS>BOND
     1    33    34    1
     2    34    27    1
     3    27    28   ar
     4    28    29   ar
     5    29    30   ar
     6    30    31   ar
     7    31    24    1
     8    24    25    1
     9    24    35    1
    10    35    36    1
    11    36    37    1
    12    37    38    1
    13    37    39    1
    14    24     1    1
    15     1     2    1
    16     2     3   ar
    17     3     4   ar
    18     4     5   ar
    19     5     6   ar
    20     6     7    1
    21     6     8   ar
    22     8     9   ar
    23     9    10   ar
    24    10    11   ar
    25    11    12   ar
    26    12    13    1
    27    13    14    1
    28     1    15    1
    29    15    16   ar
    30    16    17   ar
    31    17    18   ar
    32    18    19   ar
    33    19    20   ar
    34    20    21    1
    35    21    22    1
    36    22    23    1
    37    31    32   ar
    38    32    27   ar
    39    12     2   ar
    40    20    15   ar
    41    10     4   ar
    42    23    19    1
    43    25    26    1
@<TRIPOS>MOLECULE
*****
 39 43 0 0 0
SMALL
GASTEIGER

@<TRIPOS>ATOM
      1 C          62.0348   88.0272   10.7240 C.3     1  UNL1        0.0822
      2 C          62.5639   87.0845   11.7640 C.ar    1  UNL1        0.0375
      3 C          62.3105   85.6113   11.6392 C.ar    1  UNL1        0.0023
      4 C          62.8396   84.6686   12.6792 C.ar    1  UNL1        0.0181
      5 C          62.5863   83.1955   12.5545 C.ar    1  UNL1        0.0082
      6 C          63.1154   82.2528   13.5944 C.ar    1  UNL1        0.0347
      7 BR         62.8620   80.7796   13.4697 Br      1  UNL1       -0.0490
      8 C          63.8978   82.7834   14.7590 C.ar    1  UNL1        0.0082
      9 C          64.1511   84.2565   14.8838 C.ar    1  UNL1        0.0197
     10 C          63.6220   85.1991   13.8438 C.ar    1  UNL1        0.0844
     11 N          63.8753   86.6724   13.9685 N.ar    1  UNL1       -0.2119
     12 C          63.3463   87.6150   12.9286 C.ar    1  UNL1        0.2211
     13 O          63.5996   89.0883   13.0533 O.3     1  UNL1       -0.4563
     14 C          63.4529   89.7644   14.3842 C.3     1  UNL1        0.2542
     15 C          61.1721   87.5093    9.6116 C.ar    1  UNL1        0.0215
     16 C          59.7768   88.0321    9.4391 C.ar    1  UNL1       -0.0007
     17 C          58.9140   87.5142    8.3267 C.ar    1  UNL1        0.0030
     18 C          59.4466   86.4735    7.3868 C.ar    1  UNL1        0.0402
     19 C          60.8419   85.9507    7.5594 C.ar    1  UNL1        0.1761
     20 C          61.7046   86.4686    8.6718 C.ar    1  UNL1        0.1728
     21 O          63.0298   85.7702    8.5942 O.3     1  UNL1       -0.4349
     22 C          62.9861   84.8206    7.4339 C.3     1  UNL1        0.4294
     23 O          61.6339   84.9322    6.7943 O.3     1  UNL1       -0.4346
     24 C          62.3685   89.4878   10.7965 C.3     1  UNL1        0.1321
     25 O          63.7551   89.1955   10.3048 O.3     1  UNL1       -0.3805
     26 H          64.2574   90.0230   10.2430 H       1  UNL1        0.2108
     27 C          58.9433   89.1574   12.7737 C.ar    1  UNL1        0.2247
     28 C          58.2086   90.3649   12.2717 C.ar    1  UNL1        0.0577
     29 C          58.8605   91.2801   11.2780 C.ar    1  UNL1        0.0061
     30 C          60.2471   90.9877   10.7863 C.ar    1  UNL1        0.0173
     31 C          60.9818   89.7802   11.2883 C.ar    1  UNL1        0.0868
     32 N          60.3299   88.8651   12.2820 N.ar    1  UNL1       -0.2137
     33 C          56.8331   87.9146   13.6411 C.3     1  UNL1        0.2542
     34 O          58.2914   88.2422   13.7674 O.3     1  UNL1       -0.4561
     35 C          62.7021   90.9484   10.8691 C.3     1  UNL1        0.0506
     36 C          63.9343   91.4708   10.1917 C.3     1  UNL1        0.0750
     37 N          64.9453   92.2549   10.9746 N.3     1  UNL1       -0.2702
     38 C          65.0008   92.1269   12.4681 C.3     1  UNL1        0.0897
     39 C          65.9009   93.1670   10.2641 C.3     1  UNL1        0.0897
@<TRIPOS>BOND
     1    33    34    1
     2    34    27    1
     3    27    28   ar
     4    28    29   ar
     5    29    30   ar
     6    30    31   ar
     7    31    24    1
     8    24    25    1
     9    24    35    1
    10    35    36    1
    11    36    37    1
    12    37    38    1
    13    37    39    1
    14    24     1    1
    15     1     2    1
    16     2     3   ar
    17     3     4   ar
    18     4     5   ar
    19     5     6   ar
    20     6     7    1
    21     6     8   ar
    22     8     9   ar
    23     9    10   ar
    24    10    11   ar
    25    11    12   ar
    26    12    13    1
    27    13    14    1
    28     1    15    1
    29    15    16   ar
    30    16    17   ar
    31    17    18   ar
    32    18    19   ar
    33    19    20   ar
    34    20    21    1
    35    21    22    1
    36    22    23    1
    37    31    32   ar
    38    32    27   ar
    39    12     2   ar
    40    20    15   ar
    41    10     4   ar
    42    23    19    1
    43    25    26    1
@<TRIPOS>MOLECULE
*****
 39 43 0 0 0
SMALL
GASTEIGER

@<TRIPOS>ATOM
      1 C          62.3744   89.3469   12.3136 C.3     1  UNL1        0.0822
      2 C          62.8667   87.9775   12.6779 C.ar    1  UNL1        0.0375
      3 C          62.7548   86.8533   11.6913 C.ar    1  UNL1        0.0023
      4 C          63.2470   85.4839   12.0556 C.ar    1  UNL1        0.0181
      5 C          63.1351   84.3596   11.0690 C.ar    1  UNL1        0.0082
      6 C          63.6273   82.9904   11.4334 C.ar    1  UNL1        0.0347
      7 BR         63.5155   81.8660   10.4467 Br      1  UNL1       -0.0490
      8 C          64.2314   82.7454   12.7843 C.ar    1  UNL1        0.0082
      9 C          64.3432   83.8696   13.7709 C.ar    1  UNL1        0.0197
     10 C          63.8510   85.2389   13.4066 C.ar    1  UNL1        0.0844
     11 N          63.9629   86.3633   14.3932 N.ar    1  UNL1       -0.2119
     12 C          63.4707   87.7325   14.0289 C.ar    1  UNL1        0.2211
     13 O          63.5825   88.8569   15.0155 O.3     1  UNL1       -0.4563
     14 C          63.1987   88.6378   16.4490 C.3     1  UNL1        0.2542
     15 C          63.3417   90.3890   11.8356 C.ar    1  UNL1        0.0215
     16 C          63.5176   90.6309   10.3658 C.ar    1  UNL1       -0.0007
     17 C          64.4849   91.6730    9.8877 C.ar    1  UNL1        0.0030
     18 C          65.2762   92.4731   10.8795 C.ar    1  UNL1        0.0402
     19 C          65.1002   92.2311   12.3494 C.ar    1  UNL1        0.1761
     20 C          64.1330   91.1891   12.8274 C.ar    1  UNL1        0.1728
     21 O          64.1720   91.1735   14.3268 O.3     1  UNL1       -0.4349
     22 C          65.1633   92.2059   14.7755 C.3     1  UNL1        0.4294
     23 O          65.7370   92.8596   13.5533 O.3     1  UNL1       -0.4346
     24 C          60.9150   89.6741   12.4274 C.3     1  UNL1        0.1321
     25 O          61.1197   90.0912   13.8536 O.3     1  UNL1       -0.3805
     26 H          60.2740   90.3806   14.2304 H       1  UNL1        0.2108
     27 C          60.5394   87.3864    9.2063 C.ar    1  UNL1        0.2247
     28 C          60.3010   88.4230    8.1486 C.ar    1  UNL1        0.0577
     29 C          60.2673   89.8766    8.5172 C.ar    1  UNL1        0.0061
     30 C          60.4720   90.2936    9.9434 C.ar    1  UNL1        0.0173
     31 C          60.7103   89.2571   11.0011 C.ar    1  UNL1        0.0868
     32 N          60.7440   87.8035   10.6325 N.ar    1  UNL1       -0.2137
     33 C          60.5388   85.5238    7.3950 C.3     1  UNL1        0.2542
     34 O          60.5731   85.9328    8.8378 O.3     1  UNL1       -0.4561
     35 C          59.4556   90.0014   12.5411 C.3     1  UNL1        0.0506
     36 C          58.4284   88.9257   12.3467 C.3     1  UNL1        0.0750
     37 N          57.7056   88.3560   13.5312 N.3     1  UNL1       -0.2702
     38 C          58.4169   88.2070   14.8433 C.3     1  UNL1        0.0897
     39 C          56.2715   87.9352   13.4035 C.3     1  UNL1        0.0897
@<TRIPOS>BOND
     1    33    34    1
     2    34    27    1
     3    27    28   ar
     4    28    29   ar
     5    29    30   ar
     6    30    31   ar
     7    31    24    1
     8    24    25    1
     9    24    35    1
    10    35    36    1
    11    36    37    1
    12    37    38    1
    13    37    39    1
    14    24     1    1
    15     1     2    1
    16     2     3   ar
    17     3     4   ar
    18     4     5   ar
    19     5     6   ar
    20     6     7    1
    21     6     8   ar
    22     8     9   ar
    23     9    10   ar
    24    10    11   ar
    25    11    12   ar
    26    12    13    1
    27    13    14    1
    28     1    15    1
    29    15    16   ar
    30    16    17   ar
    31    17    18   ar
    32    18    19   ar
    33    19    20   ar
    34    20    21    1
    35    21    22    1
    36    22    23    1
    37    31    32   ar
    38    32    27   ar
    39    12     2   ar
    40    20    15   ar
    41    10     4   ar
    42    23    19    1
    43    25    26    1
@<TRIPOS>MOLECULE
*****
 39 43 0 0 0
SMALL
GASTEIGER

@<TRIPOS>ATOM
      1 C          61.9576   88.1170   11.2016 C.3     1  UNL1        0.0822
      2 C          62.9369   89.1558   11.6622 C.ar    1  UNL1        0.0375
      3 C          63.2256   90.3488   10.8000 C.ar    1  UNL1        0.0023
      4 C          64.2049   91.3876   11.2606 C.ar    1  UNL1        0.0181
      5 C          64.4937   92.5805   10.3984 C.ar    1  UNL1        0.0082
      6 C          65.4729   93.6193   10.8590 C.ar    1  UNL1        0.0347
      7 BR         65.7617   94.8123    9.9968 Br      1  UNL1       -0.0490
      8 C          66.1634   93.4650   12.1816 C.ar    1  UNL1        0.0082
      9 C          65.8746   92.2720   13.0438 C.ar    1  UNL1        0.0197
     10 C          64.8954   91.2333   12.5832 C.ar    1  UNL1        0.0844
     11 N          64.6066   90.0402   13.4454 N.ar    1  UNL1       -0.2119
     12 C          63.6273   89.0015   12.9848 C.ar    1  UNL1        0.2211
     13 O          63.3385   87.8084   13.8470 O.3     1  UNL1       -0.4563
     14 C          64.4046   87.2579   14.7472 C.3     1  UNL1        0.2542
     15 C          62.4501   86.8562   10.5553 C.ar    1  UNL1        0.0215
     16 C          62.8555   86.8627    9.1111 C.ar    1  UNL1       -0.0007
     17 C          63.3481   85.6019    8.4647 C.ar    1  UNL1        0.0030
     18 C          63.4352   84.3346    9.2624 C.ar    1  UNL1        0.0402
     19 C          63.0298   84.3282   10.7066 C.ar    1  UNL1        0.1761
     20 C          62.5373   85.5889   11.3530 C.ar    1  UNL1        0.1728
     21 O          62.2104   85.2791   12.7838 O.3     1  UNL1       -0.4349
     22 C          62.5009   83.8269   13.0216 C.3     1  UNL1        0.4294
     23 O          63.0073   83.2391   11.7378 O.3     1  UNL1       -0.4346
     24 C          60.4858   88.3390   11.3876 C.3     1  UNL1        0.1321
     25 O          60.6966   88.5002   12.8639 O.3     1  UNL1       -0.3805
     26 H          59.8447   88.6703   13.2955 H       1  UNL1        0.2108
     27 C          59.8978   86.6471    7.8461 C.ar    1  UNL1        0.2247
     28 C          59.8534   87.8555    6.9585 C.ar    1  UNL1        0.0577
     29 C          60.0199   89.2250    7.5473 C.ar    1  UNL1        0.0061
     30 C          60.2307   89.3862    9.0236 C.ar    1  UNL1        0.0173
     31 C          60.2750   88.1778    9.9112 C.ar    1  UNL1        0.0868
     32 N          60.1086   86.8083    9.3225 N.ar    1  UNL1       -0.2137
     33 C          60.8555   84.6506    6.4871 C.3     1  UNL1        0.2542
     34 O          59.7314   85.2775    7.2574 O.3     1  UNL1       -0.4561
     35 C          59.0141   88.5610   11.5735 C.3     1  UNL1        0.0506
     36 C          58.5238   89.7972   12.2674 C.3     1  UNL1        0.0750
     37 N          58.9296   91.1507   11.7641 N.3     1  UNL1       -0.2702
     38 C          60.3481   91.4011   11.3458 C.3     1  UNL1        0.0897
     39 C          57.9168   92.2539   11.6792 C.3     1  UNL1        0.0897
@<TRIPOS>BOND
     1    33    34    1
     2    34    27    1
     3    27    28   ar
     4    28    29   ar
     5    29    30   ar
     6    30    31   ar
     7    31    24    1
     8    24    25    1
     9    24    35    1
    10    35    36    1
    11    36    37    1
    12    37    38    1
    13    37    39    1
    14    24     1    1
    15     1     2    1
    16     2     3   ar
    17     3     4   ar
    18     4     5   ar
    19     5     6   ar
    20     6     7    1
    21     6     8   ar
    22     8     9   ar
    23     9    10   ar
    24    10    11   ar
    25    11    12   ar
    26    12    13    1
    27    13    14    1
    28     1    15    1
    29    15    16   ar
    30    16    17   ar
    31    17    18   ar
    32    18    19   ar
    33    19    20   ar
    34    20    21    1
    35    21    22    1
    36    22    23    1
    37    31    32   ar
    38    32    27   ar
    39    12     2   ar
    40    20    15   ar
    41    10     4   ar
    42    23    19    1
    43    25    26    1
@<TRIPOS>MOLECULE
*****
 39 43 0 0 0
SMALL
GASTEIGER

@<TRIPOS>ATOM
      1 C          63.6278   89.6361   13.7615 C.3     1  UNL1        0.0822
      2 C          63.6754   88.1436   13.9044 C.ar    1  UNL1        0.0375
      3 C          63.5876   87.2706   12.6878 C.ar    1  UNL1        0.0023
      4 C          63.6352   85.7781   12.8306 C.ar    1  UNL1        0.0181
      5 C          63.5473   84.9051   11.6141 C.ar    1  UNL1        0.0082
      6 C          63.5950   83.4127   11.7570 C.ar    1  UNL1        0.0347
      7 BR         63.5071   82.5396   10.5404 Br      1  UNL1       -0.0490
      8 C          63.7305   82.7934   13.1164 C.ar    1  UNL1        0.0082
      9 C          63.8184   83.6664   14.3329 C.ar    1  UNL1        0.0197
     10 C          63.7707   85.1588   14.1901 C.ar    1  UNL1        0.0844
     11 N          63.8586   86.0319   15.4066 N.ar    1  UNL1       -0.2119
     12 C          63.8110   87.5243   15.2638 C.ar    1  UNL1        0.2211
     13 O          63.8989   88.3974   16.4804 O.3     1  UNL1       -0.4563
     14 C          62.9135   88.2272   17.5984 C.3     1  UNL1        0.2542
     15 C          64.7172   90.4812   14.3522 C.ar    1  UNL1        0.0215
     16 C          66.1018   90.4291   13.7777 C.ar    1  UNL1       -0.0007
     17 C          67.1912   91.2742   14.3684 C.ar    1  UNL1        0.0030
     18 C          66.8961   92.1715   15.5336 C.ar    1  UNL1        0.0402
     19 C          65.5114   92.2236   16.1082 C.ar    1  UNL1        0.1761
     20 C          64.4220   91.3784   15.5175 C.ar    1  UNL1        0.1728
     21 O          63.1630   91.6386   16.2903 O.3     1  UNL1       -0.4349
     22 C          63.4743   92.6444   17.3586 C.3     1  UNL1        0.4294
     23 O          64.9257   93.0060   17.2461 O.3     1  UNL1       -0.4346
     24 C          62.4907   90.2834   13.0280 C.3     1  UNL1        0.1321
     25 O          61.5126   89.5504   13.8974 O.3     1  UNL1       -0.3805
     26 H          60.6085   89.7870   13.6375 H       1  UNL1        0.2108
     27 C          65.2119   92.9165   11.8396 C.ar    1  UNL1        0.2247
     28 C          65.4252   92.4825   10.4197 C.ar    1  UNL1        0.0577
     29 C          64.6604   91.3155    9.8693 C.ar    1  UNL1        0.0061
     30 C          63.6822   90.5824   10.7387 C.ar    1  UNL1        0.0173
     31 C          63.4689   91.0164   12.1586 C.ar    1  UNL1        0.0868
     32 N          64.2337   92.1835   12.7090 N.ar    1  UNL1       -0.2137
     33 C          66.2775   95.2636   11.5143 C.3     1  UNL1        0.2542
     34 O          65.9767   94.0836   12.3902 O.3     1  UNL1       -0.4561
     35 C          61.3537   90.9307   12.2944 C.3     1  UNL1        0.0506
     36 C          60.1790   90.1077   11.8555 C.3     1  UNL1        0.0750
     37 N          60.3355   89.1077   10.7484 N.3     1  UNL1       -0.2702
     38 C          60.4637   87.6480   11.0689 C.3     1  UNL1        0.0897
     39 C          60.3639   89.5674    9.3209 C.3     1  UNL1        0.0897
@<TRIPOS>BOND
     1    33    34    1
     2    34    27    1
     3    27    28   ar
     4    28    29   ar
     5    29    30   ar
     6    30    31   ar
     7    31    24    1
     8    24    25    1
     9    24    35    1
    10    35    36    1
    11    36    37    1
    12    37    38    1
    13    37    39    1
    14    24     1    1
    15     1     2    1
    16     2     3   ar
    17     3     4   ar
    18     4     5   ar
    19     5     6   ar
    20     6     7    1
    21     6     8   ar
    22     8     9   ar
    23     9    10   ar
    24    10    11   ar
    25    11    12   ar
    26    12    13    1
    27    13    14    1
    28     1    15    1
    29    15    16   ar
    30    16    17   ar
    31    17    18   ar
    32    18    19   ar
    33    19    20   ar
    34    20    21    1
    35    21    22    1
    36    22    23    1
    37    31    32   ar
    38    32    27   ar
    39    12     2   ar
    40    20    15   ar
    41    10     4   ar
    42    23    19    1
    43    25    26    1
@<TRIPOS>MOLECULE
*****
 39 43 0 0 0
SMALL
GASTEIGER

@<TRIPOS>ATOM
      1 C          61.7534   87.6312   10.0152 C.3     1  UNL1        0.0822
      2 C          62.2755   86.2655   10.3506 C.ar    1  UNL1        0.0375
      3 C          62.1510   85.7375   11.7490 C.ar    1  UNL1        0.0023
      4 C          62.6730   84.3718   12.0844 C.ar    1  UNL1        0.0181
      5 C          62.5485   83.8438   13.4828 C.ar    1  UNL1        0.0082
      6 C          63.0706   82.4782   13.8181 C.ar    1  UNL1        0.0347
      7 BR         62.9461   81.9502   15.2166 Br      1  UNL1       -0.0490
      8 C          63.7172   81.6406   12.7550 C.ar    1  UNL1        0.0082
      9 C          63.8417   82.1686   11.3565 C.ar    1  UNL1        0.0197
     10 C          63.3196   83.5342   11.0212 C.ar    1  UNL1        0.0844
     11 N          63.4441   84.0622    9.6227 N.ar    1  UNL1       -0.2119
     12 C          62.9221   85.4279    9.2874 C.ar    1  UNL1        0.2211
     13 O          63.0466   85.9559    7.8889 O.3     1  UNL1       -0.4563
     14 C          62.7997   85.0489    6.7200 C.3     1  UNL1        0.2542
     15 C          62.4934   88.8513   10.4773 C.ar    1  UNL1        0.0215
     16 C          62.5918   90.0520    9.5837 C.ar    1  UNL1       -0.0007
     17 C          63.3319   91.2723   10.0457 C.ar    1  UNL1        0.0030
     18 C          63.9735   91.2917   11.4015 C.ar    1  UNL1        0.0402
     19 C          63.8750   90.0909   12.2951 C.ar    1  UNL1        0.1761
     20 C          63.1350   88.8708   11.8330 C.ar    1  UNL1        0.1728
     21 O          63.2046   87.8451   12.9253 O.3     1  UNL1       -0.4349
     22 C          63.9876   88.4314   14.0625 C.3     1  UNL1        0.4294
     23 O          64.4020   89.8194   13.6730 O.3     1  UNL1       -0.4346
     24 C          60.4913   87.7767    9.2178 C.3     1  UNL1        0.1321
     25 O          61.0582   86.8804    8.1570 O.3     1  UNL1       -0.3805
     26 H          60.4110   86.7758    7.4422 H       1  UNL1        0.2108
     27 C          58.9606   88.9997   12.6690 C.ar    1  UNL1        0.2247
     28 C          58.7905   90.4655   12.4001 C.ar    1  UNL1        0.0577
     29 C          59.1873   91.0351   11.0704 C.ar    1  UNL1        0.0061
     30 C          59.7542   90.1388   10.0096 C.ar    1  UNL1        0.0173
     31 C          59.9244   88.6729   10.2786 C.ar    1  UNL1        0.0868
     32 N          59.5275   88.1034   11.6082 N.ar    1  UNL1       -0.2137
     33 C          59.2454   88.9001   15.2495 C.3     1  UNL1        0.2542
     34 O          58.5637   88.4301   13.9988 O.3     1  UNL1       -0.4561
     35 C          59.2292   87.9221    8.4203 C.3     1  UNL1        0.0506
     36 C          59.2986   88.1065    6.9334 C.3     1  UNL1        0.0750
     37 N          59.0910   89.4666    6.3358 N.3     1  UNL1       -0.2702
     38 C          60.2685   90.2635    5.8578 C.3     1  UNL1        0.0897
     39 C          57.7060   90.0299    6.2162 C.3     1  UNL1        0.0897
@<TRIPOS>BOND
     1    33    34    1
     2    34    27    1
     3    27    28   ar
     4    28    29   ar
     5    29    30   ar
     6    30    31   ar
     7    31    24    1
     8    24    25    1
     9    24    35    1
    10    35    36    1
    11    36    37    1
    12    37    38    1
    13    37    39    1
    14    24     1    1
    15     1     2    1
    16     2     3   ar
    17     3     4   ar
    18     4     5   ar
    19     5     6   ar
    20     6     7    1
    21     6     8   ar
    22     8     9   ar
    23     9    10   ar
    24    10    11   ar
    25    11    12   ar
    26    12    13    1
    27    13    14    1
    28     1    15    1
    29    15    16   ar
    30    16    17   ar
    31    17    18   ar
    32    18    19   ar
    33    19    20   ar
    34    20    21    1
    35    21    22    1
    36    22    23    1
    37    31    32   ar
    38    32    27   ar
    39    12     2   ar
    40    20    15   ar
    41    10     4   ar
    42    23    19    1
    43    25    26    1
@<TRIPOS>MOLECULE
*****
 39 43 0 0 0
SMALL
GASTEIGER

@<TRIPOS>ATOM
      1 C          62.0219   89.2350   11.9390 C.3     1  UNL1        0.0822
      2 C          63.0953   90.2586   12.1627 C.ar    1  UNL1        0.0375
      3 C          63.7142   90.9643   10.9927 C.ar    1  UNL1        0.0023
      4 C          64.7877   91.9879   11.2163 C.ar    1  UNL1        0.0181
      5 C          65.4066   92.6936   10.0463 C.ar    1  UNL1        0.0082
      6 C          66.4800   93.7171   10.2699 C.ar    1  UNL1        0.0347
      7 BR         67.0989   94.4228    9.0999 Br      1  UNL1       -0.0490
      8 C          66.9345   94.0350   11.6636 C.ar    1  UNL1        0.0082
      9 C          66.3156   93.3294   12.8336 C.ar    1  UNL1        0.0197
     10 C          65.2422   92.3058   12.6100 C.ar    1  UNL1        0.0844
     11 N          64.6233   91.6001   13.7800 N.ar    1  UNL1       -0.2119
     12 C          63.5498   90.5766   13.5564 C.ar    1  UNL1        0.2211
     13 O          62.9309   89.8709   14.7264 O.3     1  UNL1       -0.4563
     14 C          63.5057   90.0504   16.1002 C.3     1  UNL1        0.2542
     15 C          62.3919   87.8256   11.5832 C.ar    1  UNL1        0.0215
     16 C          62.1011   87.2980   10.2095 C.ar    1  UNL1       -0.0007
     17 C          62.4712   85.8885    9.8536 C.ar    1  UNL1        0.0030
     18 C          63.1320   85.0068   10.8714 C.ar    1  UNL1        0.0402
     19 C          63.4228   85.5346   12.2451 C.ar    1  UNL1        0.1761
     20 C          63.0528   86.9439   12.6010 C.ar    1  UNL1        0.1728
     21 O          63.4610   87.1851   14.0241 O.3     1  UNL1       -0.4349
     22 C          64.0833   85.9247   14.5477 C.3     1  UNL1        0.4294
     23 O          64.0597   84.9046   13.4482 O.3     1  UNL1       -0.4346
     24 C          60.5784   89.6208   12.0713 C.3     1  UNL1        0.1321
     25 O          60.7781   89.8652   13.5377 O.3     1  UNL1       -0.3805
     26 H          59.9411   90.1532   13.9345 H       1  UNL1        0.2108
     27 C          59.6164   87.8244    8.6658 C.ar    1  UNL1        0.2247
     28 C          59.9793   88.8877    7.6720 C.ar    1  UNL1        0.0577
     29 C          60.5420   90.1953    8.1447 C.ar    1  UNL1        0.0061
     30 C          60.7417   90.4397    9.6111 C.ar    1  UNL1        0.0173
     31 C          60.3787   89.3765   10.6049 C.ar    1  UNL1        0.0868
     32 N          59.8161   88.0688   10.1323 N.ar    1  UNL1       -0.2137
     33 C          59.8893   85.6028    7.3467 C.3     1  UNL1        0.2542
     34 O          59.0537   86.5166    8.1932 O.3     1  UNL1       -0.4561
     35 C          59.1349   90.0067   12.2036 C.3     1  UNL1        0.0506
     36 C          58.0678   88.9551   12.1310 C.3     1  UNL1        0.0750
     37 N          57.4885   88.3861   13.3922 N.3     1  UNL1       -0.2702
     38 C          56.0614   87.9251   13.4208 C.3     1  UNL1        0.0897
     39 C          58.3363   88.2780   14.6249 C.3     1  UNL1        0.0897
@<TRIPOS>BOND
     1    33    34    1
     2    34    27    1
     3    27    28   ar
     4    28    29   ar
     5    29    30   ar
     6    30    31   ar
     7    31    24    1
     8    24    25    1
     9    24    35    1
    10    35    36    1
    11    36    37    1
    12    37    38    1
    13    37    39    1
    14    24     1    1
    15     1     2    1
    16     2     3   ar
    17     3     4   ar
    18     4     5   ar
    19     5     6   ar
    20     6     7    1
    21     6     8   ar
    22     8     9   ar
    23     9    10   ar
    24    10    11   ar
    25    11    12   ar
    26    12    13    1
    27    13    14    1
    28     1    15    1
    29    15    16   ar
    30    16    17   ar
    31    17    18   ar
    32    18    19   ar
    33    19    20   ar
    34    20    21    1
    35    21    22    1
    36    22    23    1
    37    31    32   ar
    38    32    27   ar
    39    12     2   ar
    40    20    15   ar
    41    10     4   ar
    42    23    19    1
    43    25    26    1
@<TRIPOS>MOLECULE
*****
 39 43 0 0 0
SMALL
GASTEIGER

@<TRIPOS>ATOM
      1 C          62.8755   88.4359   12.8972 C.3     1  UNL1        0.0822
      2 C          63.6934   89.6915   12.8289 C.ar    1  UNL1        0.0375
      3 C          64.6339   90.0357   13.9455 C.ar    1  UNL1        0.0023
      4 C          65.4518   91.2913   13.8772 C.ar    1  UNL1        0.0181
      5 C          66.3923   91.6355   14.9939 C.ar    1  UNL1        0.0082
      6 C          67.2101   92.8910   14.9255 C.ar    1  UNL1        0.0347
      7 BR         68.1506   93.2352   16.0422 Br      1  UNL1       -0.0490
      8 C          67.0874   93.8024   13.7405 C.ar    1  UNL1        0.0082
      9 C          66.1469   93.4582   12.6238 C.ar    1  UNL1        0.0197
     10 C          65.3291   92.2027   12.6922 C.ar    1  UNL1        0.0844
     11 N          64.3886   91.8585   11.5755 N.ar    1  UNL1       -0.2119
     12 C          63.5708   90.6029   11.6438 C.ar    1  UNL1        0.2211
     13 O          62.6302   90.2587   10.5271 O.3     1  UNL1       -0.4563
     14 C          62.6090   91.0927    9.2805 C.3     1  UNL1        0.2542
     15 C          63.3865   87.2484   13.6579 C.ar    1  UNL1        0.0215
     16 C          64.0454   86.1164   12.9270 C.ar    1  UNL1       -0.0007
     17 C          64.5564   84.9288   13.6877 C.ar    1  UNL1        0.0030
     18 C          64.4086   84.8734   15.1794 C.ar    1  UNL1        0.0402
     19 C          63.7497   86.0056   15.9103 C.ar    1  UNL1        0.1761
     20 C          63.2387   87.1931   15.1496 C.ar    1  UNL1        0.1728
     21 O          62.6379   88.1512   16.1349 O.3     1  UNL1       -0.4349
     22 C          62.7776   87.5559   17.5046 C.3     1  UNL1        0.4294
     23 O          63.4648   86.2298   17.3658 O.3     1  UNL1       -0.4346
     24 C          61.5467   88.3679   12.2048 C.3     1  UNL1        0.1321
     25 O          61.0663   89.5376   13.0116 O.3     1  UNL1       -0.3805
     26 H          60.1526   89.7482   12.7634 H       1  UNL1        0.2108
     27 C          62.3423   84.6344   11.1195 C.ar    1  UNL1        0.2247
     28 C          62.9877   84.8587    9.7842 C.ar    1  UNL1        0.0577
     29 C          63.1528   86.2528    9.2557 C.ar    1  UNL1        0.0061
     30 C          62.6724   87.4225   10.0626 C.ar    1  UNL1        0.0173
     31 C          62.0270   87.1981   11.3979 C.ar    1  UNL1        0.0868
     32 N          61.8619   85.8041   11.9263 N.ar    1  UNL1       -0.2137
     33 C          63.2783   82.2367   11.4734 C.3     1  UNL1        0.2542
     34 O          62.1772   83.2402   11.6480 O.3     1  UNL1       -0.4561
     35 C          60.2178   88.2998   11.5123 C.3     1  UNL1        0.0506
     36 C          59.9589   89.1461   10.3013 C.3     1  UNL1        0.0750
     37 N          59.6983   88.4970    8.9744 N.3     1  UNL1       -0.2702
     38 C          59.7464   89.3141    7.7174 C.3     1  UNL1        0.0897
     39 C          59.3896   87.0308    8.9044 C.3     1  UNL1        0.0897
@<TRIPOS>BOND
     1    33    34    1
     2    34    27    1
     3    27    28   ar
     4    28    29   ar
     5    29    30   ar
     6    30    31   ar
     7    31    24    1
     8    24    25    1
     9    24    35    1
    10    35    36    1
    11    36    37    1
    12    37    38    1
    13    37    39    1
    14    24     1    1
    15     1     2    1
    16     2     3   ar
    17     3     4   ar
    18     4     5   ar
    19     5     6   ar
    20     6     7    1
    21     6     8   ar
    22     8     9   ar
    23     9    10   ar
    24    10    11   ar
    25    11    12   ar
    26    12    13    1
    27    13    14    1
    28     1    15    1
    29    15    16   ar
    30    16    17   ar
    31    17    18   ar
    32    18    19   ar
    33    19    20   ar
    34    20    21    1
    35    21    22    1
    36    22    23    1
    37    31    32   ar
    38    32    27   ar
    39    12     2   ar
    40    20    15   ar
    41    10     4   ar
    42    23    19    1
    43    25    26    1
@<TRIPOS>MOLECULE
*****
 39 43 0 0 0
SMALL
GASTEIGER

@<TRIPOS>ATOM
      1 C          63.0074   88.3805   11.6854 C.3     1  UNL1        0.0822
      2 C          63.6066   89.7356   11.9191 C.ar    1  UNL1        0.0375
      3 C          64.4063   90.3988   10.8372 C.ar    1  UNL1        0.0023
      4 C          65.0056   91.7540   11.0710 C.ar    1  UNL1        0.0181
      5 C          65.8053   92.4172    9.9891 C.ar    1  UNL1        0.0082
      6 C          66.4045   93.7722   10.2229 C.ar    1  UNL1        0.0347
      7 BR         67.2043   94.4355    9.1409 Br      1  UNL1       -0.0490
      8 C          66.2040   94.4641   11.5386 C.ar    1  UNL1        0.0082
      9 C          65.4043   93.8009   12.6205 C.ar    1  UNL1        0.0197
     10 C          64.8051   92.4458   12.3867 C.ar    1  UNL1        0.0844
     11 N          64.0054   91.7826   13.4687 N.ar    1  UNL1       -0.2119
     12 C          63.4061   90.4275   13.2349 C.ar    1  UNL1        0.2211
     13 O          62.6064   89.7642   14.3168 O.3     1  UNL1       -0.4563
     14 C          62.9727   89.9743   15.7561 C.3     1  UNL1        0.2542
     15 C          63.2617   87.2696   12.6606 C.ar    1  UNL1        0.0215
     16 C          63.9117   87.5640   13.9800 C.ar    1  UNL1       -0.0007
     17 C          64.1660   86.4531   14.9553 C.ar    1  UNL1        0.0030
     18 C          63.7704   85.0477   14.6112 C.ar    1  UNL1        0.0402
     19 C          63.1204   84.7533   13.2917 C.ar    1  UNL1        0.1761
     20 C          62.8661   85.8642   12.3165 C.ar    1  UNL1        0.1728
     21 O          62.2134   85.2742   11.1017 O.3     1  UNL1       -0.4349
     22 C          62.0643   83.7986   11.3261 C.3     1  UNL1        0.4294
     23 O          62.6249   83.4767   12.6797 O.3     1  UNL1       -0.4346
     24 C          62.1538   88.1364   10.4763 C.3     1  UNL1        0.1321
     25 O          63.2655   87.3471    9.8508 O.3     1  UNL1       -0.3805
     26 H          62.9847   87.0281    8.9789 H       1  UNL1        0.2108
     27 C          59.0446   89.0773   12.7562 C.ar    1  UNL1        0.2247
     28 C          58.8188   90.5042   12.3527 C.ar    1  UNL1        0.0577
     29 C          59.7046   91.1418   11.3238 C.ar    1  UNL1        0.0061
     30 C          60.8162   90.3526   10.6983 C.ar    1  UNL1        0.0173
     31 C          61.0421   88.9256   11.1018 C.ar    1  UNL1        0.0868
     32 N          60.1563   88.2880   12.1307 N.ar    1  UNL1       -0.2137
     33 C          56.7341   88.1119   13.4489 C.3     1  UNL1        0.2542
     34 O          58.1588   88.4395   13.7851 O.3     1  UNL1       -0.4561
     35 C          61.3002   87.8922    9.2673 C.3     1  UNL1        0.0506
     36 C          61.5470   86.6897    8.4053 C.3     1  UNL1        0.0750
     37 N          60.4242   86.0954    7.6078 N.3     1  UNL1       -0.2702
     38 C          60.6797   84.9169    6.7157 C.3     1  UNL1        0.0897
     39 C          59.0459   86.6796    7.7023 C.3     1  UNL1        0.0897
@<TRIPOS>BOND
     1    33    34    1
     2    34    27    1
     3    27    28   ar
     4    28    29   ar
     5    29    30   ar
     6    30    31   ar
     7    31    24    1
     8    24    25    1
     9    24    35    1
    10    35    36    1
    11    36    37    1
    12    37    38    1
    13    37    39    1
    14    24     1    1
    15     1     2    1
    16     2     3   ar
    17     3     4   ar
    18     4     5   ar
    19     5     6   ar
    20     6     7    1
    21     6     8   ar
    22     8     9   ar
    23     9    10   ar
    24    10    11   ar
    25    11    12   ar
    26    12    13    1
    27    13    14    1
    28     1    15    1
    29    15    16   ar
    30    16    17   ar
    31    17    18   ar
    32    18    19   ar
    33    19    20   ar
    34    20    21    1
    35    21    22    1
    36    22    23    1
    37    31    32   ar
    38    32    27   ar
    39    12     2   ar
    40    20    15   ar
    41    10     4   ar
    42    23    19    1
    43    25    26    1
