@<TRIPOS>MOLECULE
*****
 28 31 0 0 0
SMALL
GASTEIGER

@<TRIPOS>ATOM
      1 N          61.4913   86.9780   10.7693 N.pl3   1  UNL1       -0.3077
      2 C          60.6112   87.1363    9.5650 C.3     1  UNL1        0.0911
      3 C          60.4721   88.4780    8.9090 C.3     1  UNL1        0.0261
      4 C          61.2129   89.6614    9.4574 C.3     1  UNL1        0.0295
      5 C          62.0930   89.5031   10.6617 C.ar    1  UNL1       -0.0054
      6 C          62.8339   90.6865   11.2100 C.ar    1  UNL1        0.0371
      7 C          63.7139   90.5282   12.4143 C.ar    1  UNL1        0.1354
      8 C          63.8531   89.1864   13.0703 C.ar    1  UNL1        0.0414
      9 C          63.1123   88.0030   12.5220 C.ar    1  UNL1        0.0177
     10 C          62.2322   88.1614   11.3176 C.ar    1  UNL1        0.0440
     11 N          64.4548   91.7116   12.9626 N.pl3   1  UNL1       -0.1990
     12 H          64.6901   92.4624   12.3709 H       1  UNL1        0.2985
     13 C          64.8371   91.7511   14.4125 C.2     1  UNL1        0.3224
     14 N          63.8179   91.4324   15.4658 N.2     1  UNL1       -0.0985
     15 H          62.8979   91.1974   15.2055 H       1  UNL1        0.3633
     16 C          66.2387   92.1092   14.8091 C.ar    1  UNL1        0.1114
     17 C          66.6610   92.6925   16.1249 C.ar    1  UNL1        0.0144
     18 C          68.1474   92.8907   16.0885 C.ar    1  UNL1        0.0077
     19 C          68.6438   92.4299   14.7502 C.ar    1  UNL1        0.0357
     20 S          67.4642   91.9469   13.9594 S.2     1  UNL1       -0.0792
     21 C          61.6305   85.6362   11.4254 C.3     1  UNL1        0.0921
     22 C          62.7798   84.7416   11.0666 C.3     1  UNL1        0.0374
     23 C          64.2416   84.7168   13.9841 C.3     1  UNL1        0.0896
     24 N          63.7437   83.5151   13.2372 N.3     1  UNL1       -0.2727
     25 C          63.8303   82.0910   13.7002 C.3     1  UNL1        0.0721
     26 C          63.2119   81.2222   12.6452 C.3     1  UNL1        0.0187
     27 C          62.7431   82.1094   11.5303 C.3     1  UNL1        0.0174
     28 C          63.0718   83.5265   11.8961 C.3     1  UNL1        0.0593
@<TRIPOS>BOND
     1    23    24    1
     2    24    25    1
     3    25    26    1
     4    26    27    1
     5    27    28    1
     6    28    22    1
     7    22    21    1
     8    21     1    1
     9     1     2    1
    10     2     3    1
    11     3     4    1
    12     4     5    1
    13     5     6   ar
    14     6     7   ar
    15     7    11    1
    16    11    13    1
    17    13    14    2
    18    13    16    1
    19    16    17   ar
    20    17    18   ar
    21    18    19   ar
    22    19    20   ar
    23     7     8   ar
    24     8     9   ar
    25     9    10   ar
    26    28    24    1
    27    10     1    1
    28    10     5   ar
    29    20    16   ar
    30    11    12    1
    31    14    15    1
@<TRIPOS>MOLECULE
*****
 28 31 0 0 0
SMALL
GASTEIGER

@<TRIPOS>ATOM
      1 N          61.4651   87.0798   10.8074 N.pl3   1  UNL1       -0.3077
      2 C          60.5190   87.0503    9.6438 C.3     1  UNL1        0.0911
      3 C          60.2744   88.2957    8.8443 C.3     1  UNL1        0.0261
      4 C          60.9758   89.5706    9.2085 C.3     1  UNL1        0.0295
      5 C          61.9219   89.6001   10.3721 C.ar    1  UNL1       -0.0054
      6 C          62.6234   90.8750   10.7363 C.ar    1  UNL1        0.0371
      7 C          63.5694   90.9045   11.8999 C.ar    1  UNL1        0.1354
      8 C          63.8141   89.6590   12.6994 C.ar    1  UNL1        0.0414
      9 C          63.1126   88.3842   12.3353 C.ar    1  UNL1        0.0177
     10 C          62.1665   88.3547   11.1716 C.ar    1  UNL1        0.0440
     11 N          64.2709   92.1794   12.2641 N.pl3   1  UNL1       -0.1990
     12 H          63.7476   92.9858   12.4763 H       1  UNL1        0.2985
     13 C          65.7696   92.2255   12.3050 C.2     1  UNL1        0.3224
     14 N          66.5017   91.7469   13.5236 N.2     1  UNL1       -0.0985
     15 H          65.9985   91.4025   14.2965 H       1  UNL1        0.3633
     16 C          66.5362   92.7502   11.1273 C.ar    1  UNL1        0.1114
     17 C          67.6659   92.0530   10.4290 C.ar    1  UNL1        0.0144
     18 C          68.1357   92.9362    9.3113 C.ar    1  UNL1        0.0077
     19 C          67.2962   94.1793    9.3187 C.ar    1  UNL1        0.0357
     20 S          66.3077   94.0643   10.4411 S.2     1  UNL1       -0.0792
     21 C          61.7097   85.8344   11.6069 C.3     1  UNL1        0.0921
     22 C          62.7709   84.8646   11.1786 C.3     1  UNL1        0.0374
     23 C          64.1887   84.8399   14.1177 C.3     1  UNL1        0.0896
     24 N          63.7073   83.6376   13.3609 N.3     1  UNL1       -0.2727
     25 C          63.7931   82.2129   13.8222 C.3     1  UNL1        0.0721
     26 C          63.1944   81.3437   12.7563 C.3     1  UNL1        0.0187
     27 C          62.7386   82.2312   11.6363 C.3     1  UNL1        0.0174
     28 C          63.0556   83.6490   12.0099 C.3     1  UNL1        0.0593
@<TRIPOS>BOND
     1    23    24    1
     2    24    25    1
     3    25    26    1
     4    26    27    1
     5    27    28    1
     6    28    22    1
     7    22    21    1
     8    21     1    1
     9     1     2    1
    10     2     3    1
    11     3     4    1
    12     4     5    1
    13     5     6   ar
    14     6     7   ar
    15     7    11    1
    16    11    13    1
    17    13    14    2
    18    13    16    1
    19    16    17   ar
    20    17    18   ar
    21    18    19   ar
    22    19    20   ar
    23     7     8   ar
    24     8     9   ar
    25     9    10   ar
    26    28    24    1
    27    10     1    1
    28    10     5   ar
    29    20    16   ar
    30    11    12    1
    31    14    15    1
@<TRIPOS>MOLECULE
*****
 28 31 0 0 0
SMALL
GASTEIGER

@<TRIPOS>ATOM
      1 N          62.9344   85.7433   12.4053 N.pl3   1  UNL1       -0.3077
      2 C          62.1846   85.2306   11.2116 C.3     1  UNL1        0.0911
      3 C          61.6674   86.1906   10.1817 C.3     1  UNL1        0.0261
      4 C          61.8999   87.6634   10.3455 C.3     1  UNL1        0.0295
      5 C          62.6497   88.1761   11.5391 C.ar    1  UNL1       -0.0054
      6 C          62.8822   89.6489   11.7029 C.ar    1  UNL1        0.0371
      7 C          63.6320   90.1617   12.8965 C.ar    1  UNL1        0.1354
      8 C          64.1492   89.2017   13.9265 C.ar    1  UNL1        0.0414
      9 C          63.9167   87.7289   13.7628 C.ar    1  UNL1        0.0177
     10 C          63.1669   87.2161   12.5690 C.ar    1  UNL1        0.0440
     11 N          63.8645   91.6345   13.0603 N.pl3   1  UNL1       -0.1990
     12 H          63.1409   92.2131   13.3932 H       1  UNL1        0.2985
     13 C          65.1995   92.2258   12.7167 C.2     1  UNL1        0.3224
     14 N          65.5035   92.6199   11.3017 N.2     1  UNL1       -0.0985
     15 H          64.8267   92.4905   10.5985 H       1  UNL1        0.3633
     16 C          66.2306   92.4229   13.7882 C.ar    1  UNL1        0.1114
     17 C          66.9578   91.3359   14.5227 C.ar    1  UNL1        0.0144
     18 C          67.8922   91.9828   15.5017 C.ar    1  UNL1        0.0077
     19 C          67.7424   93.4697   15.3723 C.ar    1  UNL1        0.0357
     20 S          66.7155   93.7417   14.3132 S.2     1  UNL1       -0.0792
     21 C          63.4516   84.7833   13.4353 C.3     1  UNL1        0.0921
     22 C          62.5056   83.8543   14.1367 C.3     1  UNL1        0.0374
     23 C          64.3260   82.4090   11.8462 C.3     1  UNL1        0.0896
     24 N          63.2548   81.7522   12.6655 N.3     1  UNL1       -0.2727
     25 C          62.8324   80.3157   12.5758 C.3     1  UNL1        0.0721
     26 C          61.7345   80.0922   13.5732 C.3     1  UNL1        0.0187
     27 C          61.4785   81.3906   14.2793 C.3     1  UNL1        0.0174
     28 C          62.4181   82.4165   13.7183 C.3     1  UNL1        0.0593
@<TRIPOS>BOND
     1    23    24    1
     2    24    25    1
     3    25    26    1
     4    26    27    1
     5    27    28    1
     6    28    22    1
     7    22    21    1
     8    21     1    1
     9     1     2    1
    10     2     3    1
    11     3     4    1
    12     4     5    1
    13     5     6   ar
    14     6     7   ar
    15     7    11    1
    16    11    13    1
    17    13    14    2
    18    13    16    1
    19    16    17   ar
    20    17    18   ar
    21    18    19   ar
    22    19    20   ar
    23     7     8   ar
    24     8     9   ar
    25     9    10   ar
    26    28    24    1
    27    10     1    1
    28    10     5   ar
    29    20    16   ar
    30    11    12    1
    31    14    15    1
@<TRIPOS>MOLECULE
*****
 28 31 0 0 0
SMALL
GASTEIGER

@<TRIPOS>ATOM
      1 N          64.7483   91.7649   12.4018 N.pl3   1  UNL1       -0.3077
      2 C          65.4282   91.6369   13.7326 C.3     1  UNL1        0.0911
      3 C          65.1449   90.4528   14.6087 C.3     1  UNL1        0.0261
      4 C          64.1817   89.3967   14.1539 C.3     1  UNL1        0.0295
      5 C          63.5018   89.5247   12.8230 C.ar    1  UNL1       -0.0054
      6 C          62.5385   88.4686   12.3682 C.ar    1  UNL1        0.0371
      7 C          61.8586   88.5967   11.0373 C.ar    1  UNL1        0.1354
      8 C          62.1419   89.7809   10.1612 C.ar    1  UNL1        0.0414
      9 C          63.1052   90.8369   10.6160 C.ar    1  UNL1        0.0177
     10 C          63.7851   90.7089   11.9469 C.ar    1  UNL1        0.0440
     11 N          60.8954   87.5406   10.5825 N.pl3   1  UNL1       -0.1990
     12 H          59.9541   87.5768   10.8685 H       1  UNL1        0.2985
     13 C          61.3664   86.4293    9.6919 C.2     1  UNL1        0.3224
     14 N          60.9319   86.3829    8.2570 N.2     1  UNL1       -0.0985
     15 H          60.3376   87.0818    7.8997 H       1  UNL1        0.3633
     16 C          62.2718   85.3645   10.2362 C.ar    1  UNL1        0.1114
     17 C          62.4160   84.9829   11.6797 C.ar    1  UNL1        0.0144
     18 C          63.4254   83.8769   11.7682 C.ar    1  UNL1        0.0077
     19 C          63.9050   83.5748   10.3794 C.ar    1  UNL1        0.0357
     20 S          63.1921   84.4942    9.4326 S.2     1  UNL1       -0.0792
     21 C          65.0316   92.9491   11.5256 C.3     1  UNL1        0.0921
     22 C          66.2728   93.7629   11.7428 C.3     1  UNL1        0.0374
     23 C          68.2666   93.1949    9.2226 C.3     1  UNL1        0.0896
     24 N          67.6176   94.5056    9.5554 N.3     1  UNL1       -0.2727
     25 C          67.7711   95.7854    8.7882 C.3     1  UNL1        0.0721
     26 C          66.9495   96.8374    9.4725 C.3     1  UNL1        0.0187
     27 C          66.2882   96.2078   10.6626 C.3     1  UNL1        0.0174
     28 C          66.7011   94.7667   10.7138 C.3     1  UNL1        0.0593
@<TRIPOS>BOND
     1    23    24    1
     2    24    25    1
     3    25    26    1
     4    26    27    1
     5    27    28    1
     6    28    22    1
     7    22    21    1
     8    21     1    1
     9     1     2    1
    10     2     3    1
    11     3     4    1
    12     4     5    1
    13     5     6   ar
    14     6     7   ar
    15     7    11    1
    16    11    13    1
    17    13    14    2
    18    13    16    1
    19    16    17   ar
    20    17    18   ar
    21    18    19   ar
    22    19    20   ar
    23     7     8   ar
    24     8     9   ar
    25     9    10   ar
    26    28    24    1
    27    10     1    1
    28    10     5   ar
    29    20    16   ar
    30    11    12    1
    31    14    15    1
@<TRIPOS>MOLECULE
*****
 28 31 0 0 0
SMALL
GASTEIGER

@<TRIPOS>ATOM
      1 N          62.8865   89.5246   12.1155 N.pl3   1  UNL1       -0.3077
      2 C          63.3766   90.8035   12.7272 C.3     1  UNL1        0.0911
      3 C          64.2499   90.7655   13.9461 C.3     1  UNL1        0.0261
      4 C          64.6330   89.4485   14.5534 C.3     1  UNL1        0.0295
      5 C          64.1428   88.1696   13.9418 C.ar    1  UNL1       -0.0054
      6 C          64.5259   86.8526   14.5492 C.ar    1  UNL1        0.0371
      7 C          64.0357   85.5738   13.9376 C.ar    1  UNL1        0.1354
      8 C          63.1624   85.6118   12.7185 C.ar    1  UNL1        0.0414
      9 C          62.7793   86.9287   12.1112 C.ar    1  UNL1        0.0177
     10 C          63.2695   88.2077   12.7229 C.ar    1  UNL1        0.0440
     11 N          64.4188   84.2568   14.5449 N.pl3   1  UNL1       -0.1990
     12 H          65.3615   84.0683   14.7572 H       1  UNL1        0.2985
     13 C          63.3657   83.2271   14.8288 C.2     1  UNL1        0.3224
     14 N          62.5635   83.3039   16.0939 N.2     1  UNL1       -0.0985
     15 H          62.7282   84.0301   16.7379 H       1  UNL1        0.3633
     16 C          63.1148   82.1207   13.8476 C.ar    1  UNL1        0.1114
     17 C          62.3421   80.8632   14.1153 C.ar    1  UNL1        0.0144
     18 C          62.3422   80.0428   12.8595 C.ar    1  UNL1        0.0077
     19 C          63.1150   80.7932   11.8157 C.ar    1  UNL1        0.0357
     20 S          63.5924   82.0774   12.4263 S.2     1  UNL1       -0.0792
     21 C          62.0131   89.5627   10.8965 C.3     1  UNL1        0.0921
     22 C          62.3465   88.7101    9.7082 C.3     1  UNL1        0.0374
     23 C          62.6353   85.6453    8.6251 C.3     1  UNL1        0.0896
     24 N          61.4050   86.4990    8.5380 N.3     1  UNL1       -0.2727
     25 C          60.0915   86.0937    7.9377 C.3     1  UNL1        0.0721
     26 C          59.1468   87.2520    8.0646 C.3     1  UNL1        0.0187
     27 C          59.8766   88.3731    8.7433 C.3     1  UNL1        0.0174
     28 C          61.2722   87.9077    9.0359 C.3     1  UNL1        0.0593
@<TRIPOS>BOND
     1    23    24    1
     2    24    25    1
     3    25    26    1
     4    26    27    1
     5    27    28    1
     6    28    22    1
     7    22    21    1
     8    21     1    1
     9     1     2    1
    10     2     3    1
    11     3     4    1
    12     4     5    1
    13     5     6   ar
    14     6     7   ar
    15     7    11    1
    16    11    13    1
    17    13    14    2
    18    13    16    1
    19    16    17   ar
    20    17    18   ar
    21    18    19   ar
    22    19    20   ar
    23     7     8   ar
    24     8     9   ar
    25     9    10   ar
    26    28    24    1
    27    10     1    1
    28    10     5   ar
    29    20    16   ar
    30    11    12    1
    31    14    15    1
@<TRIPOS>MOLECULE
*****
 28 31 0 0 0
SMALL
GASTEIGER

@<TRIPOS>ATOM
      1 N          62.4234   86.0024   10.8207 N.pl3   1  UNL1       -0.3077
      2 C          61.8244   86.6591    9.6124 C.3     1  UNL1        0.0911
      3 C          61.7610   88.1552    9.5259 C.3     1  UNL1        0.0261
      4 C          62.2967   88.9947   10.6476 C.3     1  UNL1        0.0295
      5 C          62.8957   88.3381   11.8559 C.ar    1  UNL1       -0.0054
      6 C          63.4313   89.1776   12.9777 C.ar    1  UNL1        0.0371
      7 C          64.0303   88.5210   14.1859 C.ar    1  UNL1        0.1354
      8 C          64.0937   87.0248   14.2725 C.ar    1  UNL1        0.0414
      9 C          63.5581   86.1853   13.1508 C.ar    1  UNL1        0.0177
     10 C          62.9590   86.8420   11.9425 C.ar    1  UNL1        0.0440
     11 N          64.5660   89.3605   15.3077 N.pl3   1  UNL1       -0.1990
     12 H          64.8896   88.9314   16.1325 H       1  UNL1        0.2985
     13 C          64.6086   90.8538   15.1727 C.2     1  UNL1        0.3224
     14 N          63.6006   91.7008   15.8914 N.2     1  UNL1       -0.0985
     15 H          62.9111   91.2766   16.4516 H       1  UNL1        0.3633
     16 C          65.6591   91.5000   14.3190 C.ar    1  UNL1        0.1114
     17 C          65.4361   92.1439   12.9827 C.ar    1  UNL1        0.0144
     18 C          66.7562   92.6577   12.4896 C.ar    1  UNL1        0.0077
     19 C          67.7952   92.3313   13.5211 C.ar    1  UNL1        0.0357
     20 S          67.1171   91.6159   14.6517 S.2     1  UNL1       -0.0792
     21 C          62.4868   84.5062   10.9073 C.3     1  UNL1        0.0921
     22 C          63.3667   83.8508   11.9302 C.3     1  UNL1        0.0374
     23 C          62.3528   83.4720   15.0088 C.3     1  UNL1        0.0896
     24 N          62.4779   82.3860   13.9817 N.3     1  UNL1       -0.2727
     25 C          62.1588   80.9351   14.1895 C.3     1  UNL1        0.0721
     26 C          62.4277   80.2125   12.9028 C.3     1  UNL1        0.0187
     27 C          62.9129   81.2168   11.8998 C.3     1  UNL1        0.0174
     28 C          62.9439   82.5601   12.5667 C.3     1  UNL1        0.0593
@<TRIPOS>BOND
     1    23    24    1
     2    24    25    1
     3    25    26    1
     4    26    27    1
     5    27    28    1
     6    28    22    1
     7    22    21    1
     8    21     1    1
     9     1     2    1
    10     2     3    1
    11     3     4    1
    12     4     5    1
    13     5     6   ar
    14     6     7   ar
    15     7    11    1
    16    11    13    1
    17    13    14    2
    18    13    16    1
    19    16    17   ar
    20    17    18   ar
    21    18    19   ar
    22    19    20   ar
    23     7     8   ar
    24     8     9   ar
    25     9    10   ar
    26    28    24    1
    27    10     1    1
    28    10     5   ar
    29    20    16   ar
    30    11    12    1
    31    14    15    1
@<TRIPOS>MOLECULE
*****
 28 31 0 0 0
SMALL
GASTEIGER

@<TRIPOS>ATOM
      1 N          64.8558   91.9116   13.1845 N.pl3   1  UNL1       -0.3077
      2 C          65.0019   91.6038   14.6453 C.3     1  UNL1        0.0911
      3 C          64.2343   90.4672   15.2526 C.3     1  UNL1        0.0261
      4 C          63.3206   89.6384   14.3991 C.3     1  UNL1        0.0295
      5 C          63.1746   89.9462   12.9384 C.ar    1  UNL1       -0.0054
      6 C          62.2610   89.1174   12.0849 C.ar    1  UNL1        0.0371
      7 C          62.1149   89.4252   10.6241 C.ar    1  UNL1        0.1354
      8 C          62.8826   90.5619   10.0167 C.ar    1  UNL1        0.0414
      9 C          63.7962   91.3907   10.8702 C.ar    1  UNL1        0.0177
     10 C          63.9422   91.0828   12.3310 C.ar    1  UNL1        0.0440
     11 N          61.2013   88.5964    9.7707 N.pl3   1  UNL1       -0.1990
     12 H          60.6129   89.0320    9.1124 H       1  UNL1        0.2985
     13 C          61.1841   87.1040    9.9202 C.2     1  UNL1        0.3224
     14 N          60.8589   86.4870   11.2482 N.2     1  UNL1       -0.0985
     15 H          60.6568   87.0616   12.0216 H       1  UNL1        0.3633
     16 C          61.4922   86.2286    8.7417 C.ar    1  UNL1        0.1114
     17 C          62.7989   85.5442    8.4694 C.ar    1  UNL1        0.0144
     18 C          62.6619   84.7765    7.1881 C.ar    1  UNL1        0.0077
     19 C          61.2705   84.9864    6.6684 C.ar    1  UNL1        0.0357
     20 S          60.5476   85.8839    7.6287 S.2     1  UNL1       -0.0792
     21 C          65.6235   93.0483   12.5771 C.3     1  UNL1        0.0921
     22 C          66.4346   93.9577   13.4518 C.3     1  UNL1        0.0374
     23 C          68.6675   91.7593   12.5406 C.3     1  UNL1        0.0896
     24 N          68.5467   92.3820   13.8998 N.3     1  UNL1       -0.2727
     25 C          69.4312   92.1035   15.0789 C.3     1  UNL1        0.0721
     26 C          68.9514   92.9419   16.2265 C.3     1  UNL1        0.0187
     27 C          67.7705   93.7385   15.7566 C.3     1  UNL1        0.0174
     28 C          67.5204   93.3925   14.3187 C.3     1  UNL1        0.0593
@<TRIPOS>BOND
     1    23    24    1
     2    24    25    1
     3    25    26    1
     4    26    27    1
     5    27    28    1
     6    28    22    1
     7    22    21    1
     8    21     1    1
     9     1     2    1
    10     2     3    1
    11     3     4    1
    12     4     5    1
    13     5     6   ar
    14     6     7   ar
    15     7    11    1
    16    11    13    1
    17    13    14    2
    18    13    16    1
    19    16    17   ar
    20    17    18   ar
    21    18    19   ar
    22    19    20   ar
    23     7     8   ar
    24     8     9   ar
    25     9    10   ar
    26    28    24    1
    27    10     1    1
    28    10     5   ar
    29    20    16   ar
    30    11    12    1
    31    14    15    1
@<TRIPOS>MOLECULE
*****
 28 31 0 0 0
SMALL
GASTEIGER

@<TRIPOS>ATOM
      1 N          63.3989   84.9658   12.3853 N.pl3   1  UNL1       -0.3077
      2 C          62.7295   84.1070   11.3537 C.3     1  UNL1        0.0911
      3 C          61.9074   84.7394   10.2702 C.3     1  UNL1        0.0261
      4 C          61.7547   86.2308   10.2183 C.3     1  UNL1        0.0295
      5 C          62.4242   87.0896   11.2499 C.ar    1  UNL1       -0.0054
      6 C          62.2715   88.5809   11.1979 C.ar    1  UNL1        0.0371
      7 C          62.9409   89.4397   12.2295 C.ar    1  UNL1        0.1354
      8 C          63.7631   88.8072   13.3131 C.ar    1  UNL1        0.0414
      9 C          63.9158   87.3159   13.3650 C.ar    1  UNL1        0.0177
     10 C          63.2463   86.4571   12.3334 C.ar    1  UNL1        0.0440
     11 N          62.7883   90.9310   12.1776 N.pl3   1  UNL1       -0.1990
     12 H          62.1771   91.3853   12.8016 H       1  UNL1        0.2985
     13 C          63.5667   91.7302   11.1750 C.2     1  UNL1        0.3224
     14 N          63.1112   91.7901    9.7471 N.2     1  UNL1       -0.0985
     15 H          62.3013   91.3049    9.4680 H       1  UNL1        0.3633
     16 C          64.8007   92.4694   11.6002 C.ar    1  UNL1        0.1114
     17 C          65.5318   92.2916   12.8979 C.ar    1  UNL1        0.0144
     18 C          66.7032   93.2286   12.9021 C.ar    1  UNL1        0.0077
     19 C          66.6961   93.9854   11.6071 C.ar    1  UNL1        0.0357
     20 S          65.5203   93.5162   10.8025 S.2     1  UNL1       -0.0792
     21 C          64.2211   84.3333   13.4689 C.3     1  UNL1        0.0921
     22 C          64.4304   82.8480   13.4814 C.3     1  UNL1        0.0374
     23 C          61.7236   83.4421   15.2048 C.3     1  UNL1        0.0896
     24 N          62.0114   82.1994   14.4156 N.3     1  UNL1       -0.2727
     25 C          61.1055   81.0115   14.2800 C.3     1  UNL1        0.0721
     26 C          61.7899   80.0043   13.4040 C.3     1  UNL1        0.0187
     27 C          63.1186   80.5697   12.9983 C.3     1  UNL1        0.0174
     28 C          63.2556   81.9263   13.6235 C.3     1  UNL1        0.0593
@<TRIPOS>BOND
     1    23    24    1
     2    24    25    1
     3    25    26    1
     4    26    27    1
     5    27    28    1
     6    28    22    1
     7    22    21    1
     8    21     1    1
     9     1     2    1
    10     2     3    1
    11     3     4    1
    12     4     5    1
    13     5     6   ar
    14     6     7   ar
    15     7    11    1
    16    11    13    1
    17    13    14    2
    18    13    16    1
    19    16    17   ar
    20    17    18   ar
    21    18    19   ar
    22    19    20   ar
    23     7     8   ar
    24     8     9   ar
    25     9    10   ar
    26    28    24    1
    27    10     1    1
    28    10     5   ar
    29    20    16   ar
    30    11    12    1
    31    14    15    1
@<TRIPOS>MOLECULE
*****
 28 31 0 0 0
SMALL
GASTEIGER

@<TRIPOS>ATOM
      1 N          63.0583   94.4652   -0.3271 N.pl3   1  UNL1       -0.3077
      2 C          63.9085   94.0063    0.8203 C.3     1  UNL1        0.0911
      3 C          63.4280   92.9025    1.7152 C.3     1  UNL1        0.0261
      4 C          62.0975   92.2577    1.4626 C.3     1  UNL1        0.0295
      5 C          61.2474   92.7166    0.3152 C.ar    1  UNL1       -0.0054
      6 C          59.9168   92.0717    0.0626 C.ar    1  UNL1        0.0371
      7 C          59.0667   92.5306   -1.0848 C.ar    1  UNL1        0.1354
      8 C          59.5471   93.6345   -1.9798 C.ar    1  UNL1        0.0414
      9 C          60.8777   94.2793   -1.7272 C.ar    1  UNL1        0.0177
     10 C          61.7278   93.8204   -0.5797 C.ar    1  UNL1        0.0440
     11 N          57.7361   91.8858   -1.3374 N.pl3   1  UNL1       -0.1990
     12 H          57.3273   91.3142   -0.6479 H       1  UNL1        0.2985
     13 C          57.0284   92.1118   -2.6405 C.2     1  UNL1        0.3224
     14 N          57.1491   91.1033   -3.7442 N.2     1  UNL1       -0.0985
     15 H          57.6928   90.2930   -3.6133 H       1  UNL1        0.3633
     16 C          56.2001   93.3463   -2.8398 C.ar    1  UNL1        0.1114
     17 C          55.3247   93.9965   -1.8098 C.ar    1  UNL1        0.0144
     18 C          54.6852   95.1995   -2.4376 C.ar    1  UNL1        0.0077
     19 C          55.1655   95.2928   -3.8556 C.ar    1  UNL1        0.0357
     20 S          56.1017   94.1475   -4.1041 S.2     1  UNL1       -0.0792
     21 C          63.5388   95.5690   -1.2221 C.3     1  UNL1        0.0921
     22 C          64.6571   95.3171   -2.1895 C.3     1  UNL1        0.0374
     23 C          65.0912   96.2120   -5.2976 C.3     1  UNL1        0.0896
     24 N          64.6253   94.8671   -4.8241 N.3     1  UNL1       -0.2727
     25 C          64.2771   93.6974   -5.6962 C.3     1  UNL1        0.0721
     26 C          63.8624   92.5631   -4.8065 C.3     1  UNL1        0.0187
     27 C          63.9542   93.0318   -3.3846 C.3     1  UNL1        0.0174
     28 C          64.4257   94.4558   -3.3955 C.3     1  UNL1        0.0593
@<TRIPOS>BOND
     1    23    24    1
     2    24    25    1
     3    25    26    1
     4    26    27    1
     5    27    28    1
     6    28    22    1
     7    22    21    1
     8    21     1    1
     9     1     2    1
    10     2     3    1
    11     3     4    1
    12     4     5    1
    13     5     6   ar
    14     6     7   ar
    15     7    11    1
    16    11    13    1
    17    13    14    2
    18    13    16    1
    19    16    17   ar
    20    17    18   ar
    21    18    19   ar
    22    19    20   ar
    23     7     8   ar
    24     8     9   ar
    25     9    10   ar
    26    28    24    1
    27    10     1    1
    28    10     5   ar
    29    20    16   ar
    30    11    12    1
    31    14    15    1
