@<TRIPOS>MOLECULE
*****
 33 36 0 0 0
SMALL
GASTEIGER

@<TRIPOS>ATOM
      1 C          61.9678   88.4314   10.6562 C.ar    1  UNL1        0.0523
      2 C          62.5495   87.3798   11.5538 C.ar    1  UNL1        0.0002
      3 C          63.4389   87.7760   12.6949 C.3     1  UNL1        0.0328
      4 C          62.2419   85.9320   11.3103 C.ar    1  UNL1        0.0774
      5 N          61.3526   85.5358   10.1692 N.ar    1  UNL1       -0.2457
      6 C          60.7708   86.5875    9.2716 C.ar    1  UNL1        0.0814
      7 C          59.8814   86.1913    8.1305 C.ar    1  UNL1        0.0196
      8 C          59.2997   87.2429    7.2330 C.ar    1  UNL1        0.0082
      9 C          59.6073   88.6907    7.4765 C.ar    1  UNL1        0.0347
     10 BR         59.0254   89.7423    6.5788 Br      1  UNL1       -0.0490
     11 C          60.4966   89.0869    8.6175 C.ar    1  UNL1        0.0083
     12 C          61.0784   88.0353    9.5151 C.ar    1  UNL1        0.0222
     13 C          62.8237   84.8804   12.2079 C.ar    1  UNL1        0.0173
     14 C          62.4165   84.8163   13.6501 C.ar    1  UNL1        0.0015
     15 C          62.9983   83.7647   14.5476 C.ar    1  UNL1        0.0000
     16 C          63.9873   82.7772   14.0030 C.ar    1  UNL1        0.0000
     17 C          64.3946   82.8413   12.5608 C.ar    1  UNL1        0.0000
     18 C          63.8128   83.8929   11.6632 C.ar    1  UNL1        0.0015
     19 N          63.5709   90.4620   10.4178 N.am    1  UNL1       -0.3005
     20 C          62.2754   89.8792   10.8997 C.2     1  UNL1        0.2456
     21 O          61.2876   90.7441   11.6250 O.2     1  UNL1       -0.2702
     22 H          64.2192   89.8944    9.9418 H       1  UNL1        0.1497
     23 C          63.8785   91.9098   10.6613 C.3     1  UNL1        0.0941
     24 C          65.1528   92.3004   11.3494 C.3     1  UNL1        0.0449
     25 C          65.2709   92.1712   12.8391 C.3     1  UNL1        0.0066
     26 C          66.3582   94.2666   10.1531 C.ar    1  UNL1        0.1347
     27 C          67.5145   94.7865    9.3514 C.ar    1  UNL1        0.0366
     28 C          68.6216   93.8600    8.9442 C.ar    1  UNL1        0.0031
     29 C          68.5725   92.4137    9.3387 C.ar    1  UNL1       -0.0001
     30 C          67.4162   91.8937   10.1404 C.ar    1  UNL1       -0.0012
     31 C          66.3091   92.8202   10.5476 C.ar    1  UNL1        0.0131
     32 C          65.5607   96.6112   10.9386 C.3     1  UNL1        0.2525
     33 O          65.2511   95.1931   10.5603 O.3     1  UNL1       -0.4717
@<TRIPOS>BOND
     1    32    33    1
     2    33    26    1
     3    26    27   ar
     4    27    28   ar
     5    28    29   ar
     6    29    30   ar
     7    30    31   ar
     8    31    24    1
     9    24    25    1
    10    24    23    1
    11    23    19    1
    12    19    20   am
    13    20    21    2
    14    20     1    1
    15     1     2   ar
    16     2     3    1
    17     2     4   ar
    18     4    13    1
    19    13    14   ar
    20    14    15   ar
    21    15    16   ar
    22    16    17   ar
    23    17    18   ar
    24     4     5   ar
    25     5     6   ar
    26     6     7   ar
    27     7     8   ar
    28     8     9   ar
    29     9    10    1
    30     9    11   ar
    31    11    12   ar
    32    31    26   ar
    33    12     1   ar
    34    18    13   ar
    35    12     6   ar
    36    19    22    1
@<TRIPOS>MOLECULE
*****
 33 36 0 0 0
SMALL
GASTEIGER

@<TRIPOS>ATOM
      1 C          61.9739   88.3058   10.7169 C.ar    1  UNL1        0.0523
      2 C          62.5442   87.2238   11.5852 C.ar    1  UNL1        0.0002
      3 C          63.4343   87.5791   12.7391 C.3     1  UNL1        0.0328
      4 C          62.2244   85.7864   11.2995 C.ar    1  UNL1        0.0774
      5 N          61.3343   85.4310   10.1457 N.ar    1  UNL1       -0.2457
      6 C          60.7640   86.5131    9.2774 C.ar    1  UNL1        0.0814
      7 C          59.8739   86.1577    8.1235 C.ar    1  UNL1        0.0196
      8 C          59.3036   87.2398    7.2553 C.ar    1  UNL1        0.0082
      9 C          59.6234   88.6772    7.5409 C.ar    1  UNL1        0.0347
     10 BR         59.0530   89.7593    6.6726 Br      1  UNL1       -0.0490
     11 C          60.5135   89.0325    8.6947 C.ar    1  UNL1        0.0083
     12 C          61.0838   87.9505    9.5630 C.ar    1  UNL1        0.0222
     13 C          62.7947   84.7043   12.1678 C.ar    1  UNL1        0.0173
     14 C          63.7785   83.7259   11.5980 C.ar    1  UNL1        0.0015
     15 C          64.3488   82.6439   12.4663 C.ar    1  UNL1        0.0000
     16 C          63.9353   82.5403   13.9045 C.ar    1  UNL1        0.0000
     17 C          62.9515   83.5187   14.4743 C.ar    1  UNL1        0.0000
     18 C          62.3812   84.6007   13.6060 C.ar    1  UNL1        0.0015
     19 N          63.4565   90.4025   10.3217 N.am    1  UNL1       -0.3005
     20 C          62.2937   89.7432   11.0025 C.2     1  UNL1        0.2456
     21 O          61.4508   90.5214   11.9689 O.2     1  UNL1       -0.2702
     22 H          64.0097   89.8917    9.6875 H       1  UNL1        0.1497
     23 C          63.7762   91.8399   10.6073 C.3     1  UNL1        0.0941
     24 C          65.1599   92.2296   11.0357 C.3     1  UNL1        0.0449
     25 C          66.2170   92.4959   10.0053 C.3     1  UNL1        0.0066
     26 C          66.3479   93.4822   12.9773 C.ar    1  UNL1        0.1347
     27 C          66.6745   93.6057   14.4361 C.ar    1  UNL1        0.0366
     28 C          66.1397   92.6000   15.4121 C.ar    1  UNL1        0.0031
     29 C          65.2783   91.4709   14.9294 C.ar    1  UNL1       -0.0001
     30 C          64.9517   91.3474   13.4705 C.ar    1  UNL1       -0.0012
     31 C          65.4865   92.3531   12.4945 C.ar    1  UNL1        0.0131
     32 C          66.1026   95.7344   11.7055 C.3     1  UNL1        0.2525
     33 O          66.8827   94.4879   12.0013 O.3     1  UNL1       -0.4717
@<TRIPOS>BOND
     1    32    33    1
     2    33    26    1
     3    26    27   ar
     4    27    28   ar
     5    28    29   ar
     6    29    30   ar
     7    30    31   ar
     8    31    24    1
     9    24    25    1
    10    24    23    1
    11    23    19    1
    12    19    20   am
    13    20    21    2
    14    20     1    1
    15     1     2   ar
    16     2     3    1
    17     2     4   ar
    18     4    13    1
    19    13    14   ar
    20    14    15   ar
    21    15    16   ar
    22    16    17   ar
    23    17    18   ar
    24     4     5   ar
    25     5     6   ar
    26     6     7   ar
    27     7     8   ar
    28     8     9   ar
    29     9    10    1
    30     9    11   ar
    31    11    12   ar
    32    31    26   ar
    33    12     1   ar
    34    18    13   ar
    35    12     6   ar
    36    19    22    1
@<TRIPOS>MOLECULE
*****
 33 36 0 0 0
SMALL
GASTEIGER

@<TRIPOS>ATOM
      1 C          61.8368   88.0083   10.7530 C.ar    1  UNL1        0.0523
      2 C          62.4518   86.8631   11.5014 C.ar    1  UNL1        0.0002
      3 C          63.2596   87.1230   12.7384 C.3     1  UNL1        0.0328
      4 C          62.2590   85.4580   11.0131 C.ar    1  UNL1        0.0774
      5 N          61.4512   85.1981    9.7762 N.ar    1  UNL1       -0.2457
      6 C          60.8362   86.3433    9.0277 C.ar    1  UNL1        0.0814
      7 C          60.0284   86.0834    7.7908 C.ar    1  UNL1        0.0196
      8 C          59.4134   87.2285    7.0423 C.ar    1  UNL1        0.0082
      9 C          59.6061   88.6336    7.5307 C.ar    1  UNL1        0.0347
     10 BR         58.9910   89.7789    6.7822 Br      1  UNL1       -0.0490
     11 C          60.4139   88.8936    8.7676 C.ar    1  UNL1        0.0083
     12 C          61.0289   87.7484    9.5160 C.ar    1  UNL1        0.0222
     13 C          62.8741   84.3128   11.7616 C.ar    1  UNL1        0.0173
     14 C          62.4894   84.0565   13.1885 C.ar    1  UNL1        0.0015
     15 C          63.1044   82.9113   13.9370 C.ar    1  UNL1        0.0000
     16 C          64.1043   82.0225   13.2585 C.ar    1  UNL1        0.0000
     17 C          64.4890   82.2788   11.8316 C.ar    1  UNL1        0.0000
     18 C          63.8739   83.4240   11.0831 C.ar    1  UNL1        0.0015
     19 N          63.3500   90.0991   11.0510 N.am    1  UNL1       -0.3005
     20 C          62.0295   89.4134   11.2414 C.2     1  UNL1        0.2456
     21 O          60.9019   90.1328   11.9201 O.2     1  UNL1       -0.2702
     22 H          64.0902   89.6269   10.6055 H       1  UNL1        0.1497
     23 C          63.5428   91.5042   11.5394 C.3     1  UNL1        0.0941
     24 C          64.9217   92.0900   11.6132 C.3     1  UNL1        0.0449
     25 C          65.6715   92.4044   10.3527 C.3     1  UNL1        0.0066
     26 C          65.3091   91.4257   14.0949 C.ar    1  UNL1        0.1347
     27 C          65.9382   91.6971   15.4293 C.ar    1  UNL1        0.0366
     28 C          66.8087   92.9042   15.6165 C.ar    1  UNL1        0.0031
     29 C          67.0503   93.8399   14.4693 C.ar    1  UNL1       -0.0001
     30 C          66.4212   93.5685   13.1348 C.ar    1  UNL1       -0.0012
     31 C          65.5507   92.3614   12.9476 C.ar    1  UNL1        0.0131
     32 C          63.3483   89.9200   14.8937 C.3     1  UNL1        0.2525
     33 O          64.4386   90.2186   13.9077 O.3     1  UNL1       -0.4717
@<TRIPOS>BOND
     1    32    33    1
     2    33    26    1
     3    26    27   ar
     4    27    28   ar
     5    28    29   ar
     6    29    30   ar
     7    30    31   ar
     8    31    24    1
     9    24    25    1
    10    24    23    1
    11    23    19    1
    12    19    20   am
    13    20    21    2
    14    20     1    1
    15     1     2   ar
    16     2     3    1
    17     2     4   ar
    18     4    13    1
    19    13    14   ar
    20    14    15   ar
    21    15    16   ar
    22    16    17   ar
    23    17    18   ar
    24     4     5   ar
    25     5     6   ar
    26     6     7   ar
    27     7     8   ar
    28     8     9   ar
    29     9    10    1
    30     9    11   ar
    31    11    12   ar
    32    31    26   ar
    33    12     1   ar
    34    18    13   ar
    35    12     6   ar
    36    19    22    1
@<TRIPOS>MOLECULE
*****
 33 36 0 0 0
SMALL
GASTEIGER

@<TRIPOS>ATOM
      1 C          63.5829   90.7149   12.1979 C.ar    1  UNL1        0.0523
      2 C          64.2659   91.6330   11.2281 C.ar    1  UNL1        0.0002
      3 C          63.9526   91.5447    9.7638 C.3     1  UNL1        0.0328
      4 C          65.2622   92.6394   11.7225 C.ar    1  UNL1        0.0774
      5 N          65.5755   92.7278   13.1867 N.ar    1  UNL1       -0.2457
      6 C          64.8925   91.8096   14.1566 C.ar    1  UNL1        0.0814
      7 C          65.2058   91.8980   15.6208 C.ar    1  UNL1        0.0196
      8 C          64.5228   90.9799   16.5906 C.ar    1  UNL1        0.0082
      9 C          63.5264   89.9735   16.0962 C.ar    1  UNL1        0.0347
     10 BR         62.8434   89.0554   17.0661 Br      1  UNL1       -0.0490
     11 C          63.2131   89.8852   14.6320 C.ar    1  UNL1        0.0083
     12 C          63.8962   90.8032   13.6622 C.ar    1  UNL1        0.0222
     13 C          65.9453   93.5575   10.7526 C.ar    1  UNL1        0.0173
     14 C          65.4705   94.9719   10.5971 C.ar    1  UNL1        0.0015
     15 C          66.1535   95.8899    9.6273 C.ar    1  UNL1        0.0000
     16 C          67.3114   95.3936    8.8130 C.ar    1  UNL1        0.0000
     17 C          67.7862   93.9793    8.9685 C.ar    1  UNL1        0.0000
     18 C          67.1032   93.0613    9.9384 C.ar    1  UNL1        0.0015
     19 N          62.8925   88.2429   11.7948 N.am    1  UNL1       -0.3005
     20 C          62.5865   89.7085   11.7034 C.2     1  UNL1        0.2456
     21 O          61.2843   90.1677   11.1176 O.2     1  UNL1       -0.2702
     22 H          63.7472   87.9415   12.1793 H       1  UNL1        0.1497
     23 C          61.8962   87.2365   11.3004 C.3     1  UNL1        0.0941
     24 C          62.3103   86.2018   10.2965 C.3     1  UNL1        0.0449
     25 C          62.0273   86.4154    8.8390 C.3     1  UNL1        0.0066
     26 C          63.3345   84.7623   12.2014 C.ar    1  UNL1        0.1347
     27 C          64.0317   83.5140   12.6550 C.ar    1  UNL1        0.0366
     28 C          64.4020   82.4571   11.6572 C.ar    1  UNL1        0.0031
     29 C          64.0751   82.6483   10.2058 C.ar    1  UNL1       -0.0001
     30 C          63.3779   83.8966    9.7522 C.ar    1  UNL1       -0.0012
     31 C          63.0075   84.9536   10.7500 C.ar    1  UNL1        0.0131
     32 C          63.8862   86.1287   14.3411 C.3     1  UNL1        0.2525
     33 O          62.9641   85.8192   13.1993 O.3     1  UNL1       -0.4717
@<TRIPOS>BOND
     1    32    33    1
     2    33    26    1
     3    26    27   ar
     4    27    28   ar
     5    28    29   ar
     6    29    30   ar
     7    30    31   ar
     8    31    24    1
     9    24    25    1
    10    24    23    1
    11    23    19    1
    12    19    20   am
    13    20    21    2
    14    20     1    1
    15     1     2   ar
    16     2     3    1
    17     2     4   ar
    18     4    13    1
    19    13    14   ar
    20    14    15   ar
    21    15    16   ar
    22    16    17   ar
    23    17    18   ar
    24     4     5   ar
    25     5     6   ar
    26     6     7   ar
    27     7     8   ar
    28     8     9   ar
    29     9    10    1
    30     9    11   ar
    31    11    12   ar
    32    31    26   ar
    33    12     1   ar
    34    18    13   ar
    35    12     6   ar
    36    19    22    1
@<TRIPOS>MOLECULE
*****
 33 36 0 0 0
SMALL
GASTEIGER

@<TRIPOS>ATOM
      1 C          63.5081   91.0291   12.0820 C.ar    1  UNL1        0.0523
      2 C          64.2220   91.9369   11.1249 C.ar    1  UNL1        0.0002
      3 C          63.8247   91.9639    9.6787 C.3     1  UNL1        0.0328
      4 C          65.3334   92.8176   11.6139 C.ar    1  UNL1        0.0774
      5 N          65.7307   92.7906   13.0601 N.ar    1  UNL1       -0.2457
      6 C          65.0167   91.8828   14.0173 C.ar    1  UNL1        0.0814
      7 C          65.4141   91.8558   15.4634 C.ar    1  UNL1        0.0196
      8 C          64.7001   90.9480   16.4205 C.ar    1  UNL1        0.0082
      9 C          63.5887   90.0672   15.9314 C.ar    1  UNL1        0.0347
     10 BR         62.8747   89.1594   16.8886 Br      1  UNL1       -0.0490
     11 C          63.1914   90.0942   14.4853 C.ar    1  UNL1        0.0083
     12 C          63.9054   91.0020   13.5282 C.ar    1  UNL1        0.0222
     13 C          66.0474   93.7255   10.6567 C.ar    1  UNL1        0.0173
     14 C          67.1817   93.1992    9.8284 C.ar    1  UNL1        0.0015
     15 C          67.8956   94.1070    8.8712 C.ar    1  UNL1        0.0000
     16 C          67.4753   95.5411    8.7425 C.ar    1  UNL1        0.0000
     17 C          66.3410   96.0674    9.5709 C.ar    1  UNL1        0.0000
     18 C          65.6270   95.1596   10.5280 C.ar    1  UNL1        0.0015
     19 N          62.6954   88.7561   11.1211 N.am    1  UNL1       -0.3005
     20 C          62.3967   90.1483   11.5930 C.2     1  UNL1        0.2456
     21 O          60.9867   90.6597   11.5757 O.2     1  UNL1       -0.2702
     22 H          63.6209   88.4204   11.1324 H       1  UNL1        0.1497
     23 C          61.5841   87.8753   10.6321 C.3     1  UNL1        0.0941
     24 C          61.8213   86.4071   10.4369 C.3     1  UNL1        0.0449
     25 C          62.0391   85.5180   11.6252 C.3     1  UNL1        0.0066
     26 C          60.6528   85.9967    8.1530 C.ar    1  UNL1        0.1347
     27 C          60.6722   85.4176    6.7695 C.ar    1  UNL1        0.0366
     28 C          61.8793   84.6697    6.2862 C.ar    1  UNL1        0.0031
     29 C          63.0671   84.5010    7.1866 C.ar    1  UNL1       -0.0001
     30 C          63.0478   85.0801    8.5702 C.ar    1  UNL1       -0.0012
     31 C          61.8407   85.8280    9.0534 C.ar    1  UNL1        0.0131
     32 C          59.0159   88.0032    7.9427 C.3     1  UNL1        0.2525
     33 O          59.4457   86.7445    8.6362 O.3     1  UNL1       -0.4717
@<TRIPOS>BOND
     1    32    33    1
     2    33    26    1
     3    26    27   ar
     4    27    28   ar
     5    28    29   ar
     6    29    30   ar
     7    30    31   ar
     8    31    24    1
     9    24    25    1
    10    24    23    1
    11    23    19    1
    12    19    20   am
    13    20    21    2
    14    20     1    1
    15     1     2   ar
    16     2     3    1
    17     2     4   ar
    18     4    13    1
    19    13    14   ar
    20    14    15   ar
    21    15    16   ar
    22    16    17   ar
    23    17    18   ar
    24     4     5   ar
    25     5     6   ar
    26     6     7   ar
    27     7     8   ar
    28     8     9   ar
    29     9    10    1
    30     9    11   ar
    31    11    12   ar
    32    31    26   ar
    33    12     1   ar
    34    18    13   ar
    35    12     6   ar
    36    19    22    1
@<TRIPOS>MOLECULE
*****
 33 36 0 0 0
SMALL
GASTEIGER

@<TRIPOS>ATOM
      1 C          63.4411   86.4742   13.1588 C.ar    1  UNL1        0.0523
      2 C          63.3557   84.9891   13.3513 C.ar    1  UNL1        0.0002
      3 C          63.9963   84.3497   14.5475 C.3     1  UNL1        0.0328
      4 C          62.6297   84.1432   12.3475 C.ar    1  UNL1        0.0774
      5 N          61.9892   84.7825   11.1513 N.ar    1  UNL1       -0.2457
      6 C          62.0745   86.2677   10.9588 C.ar    1  UNL1        0.0814
      7 C          61.4339   86.9070    9.7626 C.ar    1  UNL1        0.0196
      8 C          61.5193   88.3921    9.5702 C.ar    1  UNL1        0.0082
      9 C          62.2452   89.2379   10.5739 C.ar    1  UNL1        0.0347
     10 BR         62.3306   90.7231   10.3814 Br      1  UNL1       -0.0490
     11 C          62.8858   88.5987   11.7701 C.ar    1  UNL1        0.0083
     12 C          62.8005   87.1135   11.9626 C.ar    1  UNL1        0.0222
     13 C          62.5444   82.6580   12.5400 C.ar    1  UNL1        0.0173
     14 C          63.0331   81.7331   11.4650 C.ar    1  UNL1        0.0015
     15 C          62.9478   80.2480   11.6575 C.ar    1  UNL1        0.0000
     16 C          62.3737   79.6878   12.9251 C.ar    1  UNL1        0.0000
     17 C          61.8850   80.6127   14.0001 C.ar    1  UNL1        0.0000
     18 C          61.9703   82.0978   13.8075 C.ar    1  UNL1        0.0015
     19 N          63.7457   88.7416   14.3902 N.am    1  UNL1       -0.3005
     20 C          64.1670   87.3200   14.1626 C.2     1  UNL1        0.2456
     21 O          65.3143   86.7444   14.9386 O.2     1  UNL1       -0.2702
     22 H          62.9926   89.1194   13.8808 H       1  UNL1        0.1497
     23 C          64.4716   89.5874   15.3940 C.3     1  UNL1        0.0941
     24 C          64.6512   91.0560   15.1473 C.3     1  UNL1        0.0449
     25 C          64.1053   92.0532   16.1259 C.3     1  UNL1        0.0066
     26 C          66.8670   91.6953   13.9509 C.ar    1  UNL1        0.1347
     27 C          67.5925   92.1668   12.7256 C.ar    1  UNL1        0.0366
     28 C          66.8277   92.4705   11.4715 C.ar    1  UNL1        0.0031
     29 C          65.3375   92.3027   11.4426 C.ar    1  UNL1       -0.0001
     30 C          64.6119   91.8312   12.6679 C.ar    1  UNL1       -0.0012
     31 C          65.3767   91.5275   13.9220 C.ar    1  UNL1        0.0131
     32 C          68.0738   92.5088   16.1030 C.3     1  UNL1        0.2525
     33 O          67.6318   91.3916   15.2050 O.3     1  UNL1       -0.4717
@<TRIPOS>BOND
     1    32    33    1
     2    33    26    1
     3    26    27   ar
     4    27    28   ar
     5    28    29   ar
     6    29    30   ar
     7    30    31   ar
     8    31    24    1
     9    24    25    1
    10    24    23    1
    11    23    19    1
    12    19    20   am
    13    20    21    2
    14    20     1    1
    15     1     2   ar
    16     2     3    1
    17     2     4   ar
    18     4    13    1
    19    13    14   ar
    20    14    15   ar
    21    15    16   ar
    22    16    17   ar
    23    17    18   ar
    24     4     5   ar
    25     5     6   ar
    26     6     7   ar
    27     7     8   ar
    28     8     9   ar
    29     9    10    1
    30     9    11   ar
    31    11    12   ar
    32    31    26   ar
    33    12     1   ar
    34    18    13   ar
    35    12     6   ar
    36    19    22    1
@<TRIPOS>MOLECULE
*****
 33 36 0 0 0
SMALL
GASTEIGER

@<TRIPOS>ATOM
      1 C          62.1347   87.8658   10.8993 C.ar    1  UNL1        0.0523
      2 C          62.6576   86.6867   11.6651 C.ar    1  UNL1        0.0002
      3 C          63.5532   86.8990   12.8495 C.3     1  UNL1        0.0328
      4 C          62.2848   85.2954   11.2466 C.ar    1  UNL1        0.0774
      5 N          61.3892   85.0830   10.0622 N.ar    1  UNL1       -0.2457
      6 C          60.8663   86.2621    9.2963 C.ar    1  UNL1        0.0814
      7 C          59.9707   86.0497    8.1120 C.ar    1  UNL1        0.0196
      8 C          59.4478   87.2288    7.3461 C.ar    1  UNL1        0.0082
      9 C          59.8206   88.6201    7.7647 C.ar    1  UNL1        0.0347
     10 BR         59.2977   89.7992    6.9988 Br      1  UNL1       -0.0490
     11 C          60.7162   88.8325    8.9490 C.ar    1  UNL1        0.0083
     12 C          61.2391   87.6534    9.7149 C.ar    1  UNL1        0.0222
     13 C          62.8077   84.1163   12.0125 C.ar    1  UNL1        0.0173
     14 C          62.3063   83.8405   13.3990 C.ar    1  UNL1        0.0015
     15 C          62.8292   82.6615   14.1648 C.ar    1  UNL1        0.0000
     16 C          63.8535   81.7584   13.5441 C.ar    1  UNL1        0.0000
     17 C          64.3548   82.0342   12.1576 C.ar    1  UNL1        0.0000
     18 C          63.8319   83.2132   11.3918 C.ar    1  UNL1        0.0015
     19 N          62.7899   89.5561   12.7604 N.am    1  UNL1       -0.3005
     20 C          62.5075   89.2571   11.3178 C.2     1  UNL1        0.2456
     21 O          62.5978   90.3495   10.2939 O.2     1  UNL1       -0.2702
     22 H          62.7306   88.8391   13.4325 H       1  UNL1        0.1497
     23 C          63.1627   90.9474   13.1789 C.3     1  UNL1        0.0941
     24 C          64.6049   91.3113   13.3726 C.3     1  UNL1        0.0449
     25 C          65.4189   90.6174   14.4242 C.3     1  UNL1        0.0066
     26 C          66.0115   93.4841   13.1480 C.ar    1  UNL1        0.1347
     27 C          66.6397   94.5420   12.2900 C.ar    1  UNL1        0.0366
     28 C          66.4896   94.4850   10.7986 C.ar    1  UNL1        0.0031
     29 C          65.7113   93.3702   10.1652 C.ar    1  UNL1       -0.0001
     30 C          65.0830   92.3122   11.0232 C.ar    1  UNL1       -0.0012
     31 C          65.2331   92.3692   12.5146 C.ar    1  UNL1        0.0131
     32 C          67.5267   93.4855   15.2584 C.3     1  UNL1        0.2525
     33 O          66.1616   93.5411   14.6394 O.3     1  UNL1       -0.4717
@<TRIPOS>BOND
     1    32    33    1
     2    33    26    1
     3    26    27   ar
     4    27    28   ar
     5    28    29   ar
     6    29    30   ar
     7    30    31   ar
     8    31    24    1
     9    24    25    1
    10    24    23    1
    11    23    19    1
    12    19    20   am
    13    20    21    2
    14    20     1    1
    15     1     2   ar
    16     2     3    1
    17     2     4   ar
    18     4    13    1
    19    13    14   ar
    20    14    15   ar
    21    15    16   ar
    22    16    17   ar
    23    17    18   ar
    24     4     5   ar
    25     5     6   ar
    26     6     7   ar
    27     7     8   ar
    28     8     9   ar
    29     9    10    1
    30     9    11   ar
    31    11    12   ar
    32    31    26   ar
    33    12     1   ar
    34    18    13   ar
    35    12     6   ar
    36    19    22    1
@<TRIPOS>MOLECULE
*****
 33 36 0 0 0
SMALL
GASTEIGER

@<TRIPOS>ATOM
      1 C          62.9385   88.8256   12.2764 C.ar    1  UNL1        0.0523
      2 C          62.0404   89.0032   11.0883 C.ar    1  UNL1        0.0002
      3 C          61.7062   90.3816   10.6000 C.3     1  UNL1        0.0328
      4 C          61.4763   87.8024   10.3883 C.ar    1  UNL1        0.0774
      5 N          61.8104   86.4240   10.8764 N.ar    1  UNL1       -0.2457
      6 C          62.7086   86.2463   12.0647 C.ar    1  UNL1        0.0814
      7 C          63.0427   84.8680   12.5528 C.ar    1  UNL1        0.0196
      8 C          63.9408   84.6903   13.7410 C.ar    1  UNL1        0.0082
      9 C          64.5048   85.8911   14.4410 C.ar    1  UNL1        0.0347
     10 BR         65.4030   85.7135   15.6292 Br      1  UNL1       -0.0490
     11 C          64.1707   87.2695   13.9528 C.ar    1  UNL1        0.0083
     12 C          63.2726   87.4471   12.7647 C.ar    1  UNL1        0.0222
     13 C          60.5782   87.9801    9.2000 C.ar    1  UNL1        0.0173
     14 C          59.8520   86.8000    8.6256 C.ar    1  UNL1        0.0015
     15 C          58.9539   86.9777    7.4375 C.ar    1  UNL1        0.0000
     16 C          58.7819   88.3355    6.8237 C.ar    1  UNL1        0.0000
     17 C          59.5081   89.5156    7.3981 C.ar    1  UNL1        0.0000
     18 C          60.4062   89.3379    8.5863 C.ar    1  UNL1        0.0015
     19 N          64.5516   90.8621   12.3047 N.am    1  UNL1       -0.3005
     20 C          63.5025   90.0264   12.9764 C.2     1  UNL1        0.2456
     21 O          63.0175   90.3915   14.3480 O.2     1  UNL1       -0.2702
     22 H          64.8699   90.6224   11.4044 H       1  UNL1        0.1497
     23 C          65.1156   92.0628   13.0047 C.3     1  UNL1        0.0941
     24 C          66.5612   92.4227   12.8296 C.3     1  UNL1        0.0449
     25 C          67.4934   92.3755   14.0039 C.3     1  UNL1        0.0066
     26 C          66.7780   94.2002   10.9472 C.ar    1  UNL1        0.1347
     27 C          67.2914   94.6073    9.5979 C.ar    1  UNL1        0.0366
     28 C          68.1016   93.6442    8.7818 C.ar    1  UNL1        0.0031
     29 C          68.3983   92.2739    9.3149 C.ar    1  UNL1       -0.0001
     30 C          67.8848   91.8667   10.6643 C.ar    1  UNL1       -0.0012
     31 C          67.0747   92.8299   11.4804 C.ar    1  UNL1        0.0131
     32 C          65.9816   96.6257   11.4296 C.3     1  UNL1        0.2525
     33 O          65.9679   95.1633   11.7633 O.3     1  UNL1       -0.4717
@<TRIPOS>BOND
     1    32    33    1
     2    33    26    1
     3    26    27   ar
     4    27    28   ar
     5    28    29   ar
     6    29    30   ar
     7    30    31   ar
     8    31    24    1
     9    24    25    1
    10    24    23    1
    11    23    19    1
    12    19    20   am
    13    20    21    2
    14    20     1    1
    15     1     2   ar
    16     2     3    1
    17     2     4   ar
    18     4    13    1
    19    13    14   ar
    20    14    15   ar
    21    15    16   ar
    22    16    17   ar
    23    17    18   ar
    24     4     5   ar
    25     5     6   ar
    26     6     7   ar
    27     7     8   ar
    28     8     9   ar
    29     9    10    1
    30     9    11   ar
    31    11    12   ar
    32    31    26   ar
    33    12     1   ar
    34    18    13   ar
    35    12     6   ar
    36    19    22    1
@<TRIPOS>MOLECULE
*****
 33 36 0 0 0
SMALL
GASTEIGER

@<TRIPOS>ATOM
      1 C          63.2513   88.4831   12.5046 C.ar    1  UNL1        0.0523
      2 C          62.3236   87.9549   11.4510 C.ar    1  UNL1        0.0002
      3 C          61.7342   86.5826   11.5901 C.3     1  UNL1        0.0328
      4 C          61.9852   88.7990   10.2581 C.ar    1  UNL1        0.0774
      5 N          62.5746   90.1713   10.1188 N.ar    1  UNL1       -0.2457
      6 C          63.5023   90.6996   11.1725 C.ar    1  UNL1        0.0814
      7 C          64.0917   92.0719   11.0333 C.ar    1  UNL1        0.0196
      8 C          65.0194   92.6001   12.0870 C.ar    1  UNL1        0.0082
      9 C          65.3578   91.7560   13.2799 C.ar    1  UNL1        0.0347
     10 BR         66.2856   92.2843   14.3336 Br      1  UNL1       -0.0490
     11 C          64.7685   90.3837   13.4191 C.ar    1  UNL1        0.0083
     12 C          63.8407   89.8555   12.3654 C.ar    1  UNL1        0.0222
     13 C          61.0574   88.2708    9.2043 C.ar    1  UNL1        0.0173
     14 C          60.1143   89.2010    8.5007 C.ar    1  UNL1        0.0015
     15 C          59.1866   88.6727    7.4471 C.ar    1  UNL1        0.0000
     16 C          59.2020   87.2142    7.0971 C.ar    1  UNL1        0.0000
     17 C          60.1451   86.2839    7.8007 C.ar    1  UNL1        0.0000
     18 C          61.0728   86.8122    8.8544 C.ar    1  UNL1        0.0015
     19 N          63.8729   86.1761   13.5251 N.am    1  UNL1       -0.3005
     20 C          63.5897   87.6390   13.6975 C.2     1  UNL1        0.2456
     21 O          63.6450   88.2578   15.0628 O.2     1  UNL1       -0.2702
     22 H          63.8366   85.7700   12.6290 H       1  UNL1        0.1497
     23 C          64.2113   85.3320   14.7180 C.3     1  UNL1        0.0941
     24 C          64.1364   83.8368   14.6243 C.3     1  UNL1        0.0449
     25 C          64.3042   82.9988   15.8570 C.3     1  UNL1        0.0066
     26 C          62.7347   82.2432   13.1258 C.ar    1  UNL1        0.1347
     27 C          62.4921   81.5861   11.7994 C.ar    1  UNL1        0.0366
     28 C          63.4085   81.8654   10.6452 C.ar    1  UNL1        0.0031
     29 C          64.5675   82.8019   10.8173 C.ar    1  UNL1       -0.0001
     30 C          64.8102   83.4590   12.1438 C.ar    1  UNL1       -0.0012
     31 C          63.8938   83.1797   13.2980 C.ar    1  UNL1        0.0131
     32 C          60.8059   80.8613   14.1840 C.3     1  UNL1        0.2525
     33 O          61.8183   81.9639   14.2800 O.3     1  UNL1       -0.4717
@<TRIPOS>BOND
     1    32    33    1
     2    33    26    1
     3    26    27   ar
     4    27    28   ar
     5    28    29   ar
     6    29    30   ar
     7    30    31   ar
     8    31    24    1
     9    24    25    1
    10    24    23    1
    11    23    19    1
    12    19    20   am
    13    20    21    2
    14    20     1    1
    15     1     2   ar
    16     2     3    1
    17     2     4   ar
    18     4    13    1
    19    13    14   ar
    20    14    15   ar
    21    15    16   ar
    22    16    17   ar
    23    17    18   ar
    24     4     5   ar
    25     5     6   ar
    26     6     7   ar
    27     7     8   ar
    28     8     9   ar
    29     9    10    1
    30     9    11   ar
    31    11    12   ar
    32    31    26   ar
    33    12     1   ar
    34    18    13   ar
    35    12     6   ar
    36    19    22    1
