@<TRIPOS>MOLECULE
*****
 39 44 0 0 0
SMALL
GASTEIGER

@<TRIPOS>ATOM
      1 N          62.3990   89.7926   12.3205 N.am    1  UNL1       -0.2770
      2 C          63.0816   88.4592   12.2427 C.2     1  UNL1        0.2294
      3 O          64.3118   88.1975   13.0600 O.2     1  UNL1       -0.2747
      4 C          62.5340   87.3874   11.3474 C.3     1  UNL1        0.1211
      5 C          61.8427   87.7588   10.0691 C.3     1  UNL1        0.0804
      6 N          61.2951   86.6870    9.1739 N.3     1  UNL1       -0.2969
      7 C          61.4388   85.2439    9.5570 C.3     1  UNL1        0.0714
      8 C          62.1301   84.8725   10.8353 C.3     1  UNL1        0.0490
      9 C          62.6777   85.9443   11.7305 C.3     1  UNL1        0.1224
     10 O          63.2727   86.9007   12.7212 O.3     1  UNL1       -0.3492
     11 C          63.8581   86.0989   13.8456 C.3     1  UNL1        0.1687
     12 C          63.6249   84.6468   13.5500 C.ar    1  UNL1        0.0079
     13 C          63.9826   83.3994   14.3021 C.ar    1  UNL1        0.0299
     14 C          63.6108   82.0563   13.7471 C.ar    1  UNL1        0.1671
     15 F          63.9685   80.8089   14.4992 F       1  UNL1       -0.2018
     16 C          62.8813   81.9608   12.4400 C.ar    1  UNL1        0.1671
     17 F          62.5094   80.6178   11.8850 F       1  UNL1       -0.2018
     18 C          62.5235   83.2083   11.6877 C.ar    1  UNL1        0.0297
     19 C          62.8954   84.5513   12.2427 C.ar    1  UNL1        0.0033
     20 H          61.7513   86.7981    8.2684 H       1  UNL1        0.1233
     21 C          61.1688   90.0542   11.5031 C.3     1  UNL1        0.0758
     22 C          60.5230   90.3153   10.1746 C.3     1  UNL1        0.0215
     23 C          59.6837   90.2463   11.4159 C.3     1  UNL1        0.0215
     24 C          62.9466   90.8643   13.2158 C.3     1  UNL1        0.1200
     25 C          64.8283   91.7599   15.3738 C.ar    1  UNL1       -0.0223
     26 C          65.7691   92.2077   16.4528 C.ar    1  UNL1       -0.0043
     27 C          67.0464   92.9063   16.0918 C.ar    1  UNL1       -0.0003
     28 C          67.3829   93.1572   14.6517 C.ar    1  UNL1       -0.0000
     29 C          66.4421   92.7095   13.5727 C.ar    1  UNL1       -0.0006
     30 C          66.7785   92.9603   12.1326 C.ar    1  UNL1       -0.0000
     31 C          65.8377   92.5126   11.0536 C.ar    1  UNL1       -0.0003
     32 C          64.5604   91.8139   11.4147 C.ar    1  UNL1       -0.0026
     33 C          64.2239   91.5630   12.8547 C.ar    1  UNL1       -0.0026
     34 C          65.1647   92.0108   13.9338 C.ar    1  UNL1       -0.0063
     35 C          63.5510   91.0612   15.7349 C.3     1  UNL1        0.0289
     36 C          63.5378   90.0455   16.8385 C.3     1  UNL1        0.0367
     37 C          63.1489   88.6263   16.5471 C.3     1  UNL1        0.1426
     38 C          62.4168   86.2921   17.4219 C.3     1  UNL1        0.1741
     39 O          63.0443   87.6325   17.6658 O.3     1  UNL1       -0.3511
@<TRIPOS>BOND
     1    38    39    1
     2    39    37    1
     3    37    36    1
     4    36    35    1
     5    35    25    1
     6    25    26   ar
     7    26    27   ar
     8    27    28   ar
     9    28    29   ar
    10    29    30   ar
    11    30    31   ar
    12    31    32   ar
    13    32    33   ar
    14    33    24    1
    15    24     1    1
    16     1     2   am
    17     2     3    2
    18     4     2    1
    19     4     5    1
    20     5     6    1
    21     6     7    1
    22     7     8    1
    23     9     8    1
    24     9    10    1
    25    10    11    1
    26    11    12    1
    27    12    13   ar
    28    13    14   ar
    29    14    15    1
    30    14    16   ar
    31    16    17    1
    32    16    18   ar
    33    18    19   ar
    34     1    21    1
    35    21    22    1
    36    22    23    1
    37    33    34   ar
    38    34    25   ar
    39    34    29   ar
    40     9     4    1
    41    19    12   ar
    42    23    21    1
    43    19     9    1
    44     6    20    1
@<TRIPOS>MOLECULE
*****
 39 44 0 0 0
SMALL
GASTEIGER

@<TRIPOS>ATOM
      1 N          62.6668   86.6242   11.7951 N.am    1  UNL1       -0.2770
      2 C          63.1078   87.8928   12.4631 C.2     1  UNL1        0.2294
      3 O          63.5592   87.8696   13.8933 O.2     1  UNL1       -0.2747
      4 C          63.0973   89.1847   11.7007 C.3     1  UNL1        0.1211
      5 C          62.2486   89.3234   10.4717 C.3     1  UNL1        0.0804
      6 N          62.2382   90.6152    9.7095 N.3     1  UNL1       -0.2969
      7 C          63.0763   91.7683   10.1763 C.3     1  UNL1        0.0714
      8 C          63.9250   91.6296   11.4053 C.3     1  UNL1        0.0490
      9 C          63.9354   90.3378   12.1675 C.3     1  UNL1        0.1224
     10 O          64.0477   89.1142   13.0280 O.3     1  UNL1       -0.3492
     11 C          65.0025   89.4184   14.1442 C.3     1  UNL1        0.1687
     12 C          65.4804   90.8300   13.9736 C.ar    1  UNL1        0.0079
     13 C          66.4307   91.6714   14.7727 C.ar    1  UNL1        0.0299
     14 C          66.7218   93.0810   14.3504 C.ar    1  UNL1        0.1671
     15 F          67.6721   93.9224   15.1495 F       1  UNL1       -0.2018
     16 C          66.0623   93.6491   13.1288 C.ar    1  UNL1        0.1671
     17 F          66.3533   95.0587   12.7063 F       1  UNL1       -0.2018
     18 C          65.1119   92.8078   12.3295 C.ar    1  UNL1        0.0297
     19 C          64.8209   91.3982   12.7519 C.ar    1  UNL1        0.0033
     20 H          61.2716   90.9407    9.6949 H       1  UNL1        0.1233
     21 C          62.2153   86.6475   10.3648 C.3     1  UNL1        0.0758
     22 C          62.5385   86.6300    8.9001 C.3     1  UNL1        0.0215
     23 C          61.1102   86.7053    9.3522 C.3     1  UNL1        0.0215
     24 C          62.6773   85.3324   12.5573 C.3     1  UNL1        0.1200
     25 C          62.0732   82.7050   13.8733 C.ar    1  UNL1       -0.0223
     26 C          61.7711   81.3913   14.5312 C.ar    1  UNL1       -0.0043
     27 C          62.0960   80.1074   13.8268 C.ar    1  UNL1       -0.0003
     28 C          62.7230   80.1373   12.4645 C.ar    1  UNL1       -0.0000
     29 C          63.0251   81.4510   11.8066 C.ar    1  UNL1       -0.0006
     30 C          63.6521   81.4809   10.4442 C.ar    1  UNL1       -0.0000
     31 C          63.9541   82.7946    9.7862 C.ar    1  UNL1       -0.0003
     32 C          63.6292   84.0784   10.4906 C.ar    1  UNL1       -0.0026
     33 C          63.0022   84.0486   11.8529 C.ar    1  UNL1       -0.0026
     34 C          62.7001   82.7348   12.5109 C.ar    1  UNL1       -0.0063
     35 C          61.7482   83.9888   14.5776 C.3     1  UNL1        0.0289
     36 C          62.3260   84.2674   15.9335 C.3     1  UNL1        0.0367
     37 C          63.4182   85.2838   16.0890 C.3     1  UNL1        0.1426
     38 C          62.6520   86.6325   18.1732 C.3     1  UNL1        0.1741
     39 O          63.1306   86.5982   16.7521 O.3     1  UNL1       -0.3511
@<TRIPOS>BOND
     1    38    39    1
     2    39    37    1
     3    37    36    1
     4    36    35    1
     5    35    25    1
     6    25    26   ar
     7    26    27   ar
     8    27    28   ar
     9    28    29   ar
    10    29    30   ar
    11    30    31   ar
    12    31    32   ar
    13    32    33   ar
    14    33    24    1
    15    24     1    1
    16     1     2   am
    17     2     3    2
    18     4     2    1
    19     4     5    1
    20     5     6    1
    21     6     7    1
    22     7     8    1
    23     9     8    1
    24     9    10    1
    25    10    11    1
    26    11    12    1
    27    12    13   ar
    28    13    14   ar
    29    14    15    1
    30    14    16   ar
    31    16    17    1
    32    16    18   ar
    33    18    19   ar
    34     1    21    1
    35    21    22    1
    36    22    23    1
    37    33    34   ar
    38    34    25   ar
    39    34    29   ar
    40     9     4    1
    41    19    12   ar
    42    23    21    1
    43    19     9    1
    44     6    20    1
@<TRIPOS>MOLECULE
*****
 39 44 0 0 0
SMALL
GASTEIGER

@<TRIPOS>ATOM
      1 N          62.5966   87.4110   13.1006 N.am    1  UNL1       -0.2770
      2 C          62.2081   88.8584   13.1651 C.2     1  UNL1        0.2294
      3 O          61.0001   89.3446   12.4206 O.2     1  UNL1       -0.2747
      4 C          63.0277   89.8195   13.9741 C.3     1  UNL1        0.1211
      5 C          63.0226   89.7338   15.4717 C.3     1  UNL1        0.0804
      6 N          63.8422   90.6950   16.2806 N.3     1  UNL1       -0.2969
      7 C          64.6668   91.7418   15.5921 C.3     1  UNL1        0.0714
      8 C          64.6719   91.8275   14.0946 C.3     1  UNL1        0.0490
      9 C          63.8523   90.8664   13.2856 C.3     1  UNL1        0.1224
     10 O          63.0873   89.9788   12.3490 O.3     1  UNL1       -0.3492
     11 C          63.3855   90.4185   10.9463 C.3     1  UNL1        0.1687
     12 C          64.3348   91.5779   11.0158 C.ar    1  UNL1        0.0079
     13 C          64.9737   92.4172    9.9495 C.ar    1  UNL1        0.0299
     14 C          65.9013   93.5335   10.3288 C.ar    1  UNL1        0.1671
     15 F          66.5402   94.3728    9.2625 F       1  UNL1       -0.2018
     16 C          66.1898   93.8102   11.7746 C.ar    1  UNL1        0.1671
     17 F          67.1172   94.9263   12.1540 F       1  UNL1       -0.2018
     18 C          65.5508   92.9708   12.8410 C.ar    1  UNL1        0.0297
     19 C          64.6233   91.8546   12.4616 C.ar    1  UNL1        0.0033
     20 H          64.4850   90.1350   16.8406 H       1  UNL1        0.1233
     21 C          63.8047   86.9248   13.8451 C.3     1  UNL1        0.0758
     22 C          64.8961   85.9127   14.0304 C.3     1  UNL1        0.0215
     23 C          64.8056   87.0948   14.9492 C.3     1  UNL1        0.0215
     24 C          61.7771   86.4498   12.2916 C.3     1  UNL1        0.1200
     25 C          62.7601   83.6173   12.3949 C.ar    1  UNL1       -0.0223
     26 C          63.2516   82.2011   12.4465 C.ar    1  UNL1       -0.0043
     27 C          63.8357   81.5648   11.2202 C.ar    1  UNL1       -0.0003
     28 C          63.9284   82.3446    9.9422 C.ar    1  UNL1       -0.0000
     29 C          63.4369   83.7608    9.8906 C.ar    1  UNL1       -0.0006
     30 C          63.5295   84.5408    8.6126 C.ar    1  UNL1       -0.0000
     31 C          63.0379   85.9570    8.5610 C.ar    1  UNL1       -0.0003
     32 C          62.4538   86.5933    9.7873 C.ar    1  UNL1       -0.0026
     33 C          62.3612   85.8135   11.0653 C.ar    1  UNL1       -0.0026
     34 C          62.8527   84.3972   11.1169 C.ar    1  UNL1       -0.0063
     35 C          62.1760   84.2537   13.6212 C.3     1  UNL1        0.0289
     36 C          62.2407   83.5408   14.9393 C.3     1  UNL1        0.0367
     37 C          62.6580   84.2835   16.1740 C.3     1  UNL1        0.1426
     38 C          62.4704   86.4151   17.6474 C.3     1  UNL1        0.1741
     39 O          61.8884   85.4920   16.6182 O.3     1  UNL1       -0.3511
@<TRIPOS>BOND
     1    38    39    1
     2    39    37    1
     3    37    36    1
     4    36    35    1
     5    35    25    1
     6    25    26   ar
     7    26    27   ar
     8    27    28   ar
     9    28    29   ar
    10    29    30   ar
    11    30    31   ar
    12    31    32   ar
    13    32    33   ar
    14    33    24    1
    15    24     1    1
    16     1     2   am
    17     2     3    2
    18     4     2    1
    19     4     5    1
    20     5     6    1
    21     6     7    1
    22     7     8    1
    23     9     8    1
    24     9    10    1
    25    10    11    1
    26    11    12    1
    27    12    13   ar
    28    13    14   ar
    29    14    15    1
    30    14    16   ar
    31    16    17    1
    32    16    18   ar
    33    18    19   ar
    34     1    21    1
    35    21    22    1
    36    22    23    1
    37    33    34   ar
    38    34    25   ar
    39    34    29   ar
    40     9     4    1
    41    19    12   ar
    42    23    21    1
    43    19     9    1
    44     6    20    1
@<TRIPOS>MOLECULE
*****
 39 44 0 0 0
SMALL
GASTEIGER

@<TRIPOS>ATOM
      1 N          59.8554   95.5754   -2.6193 N.am    1  UNL1       -0.2770
      2 C          60.3049   94.7231   -3.7689 C.2     1  UNL1        0.2294
      3 O          61.6392   94.0398   -3.7192 O.2     1  UNL1       -0.2747
      4 C          59.4200   94.5542   -4.9683 C.3     1  UNL1        0.1211
      5 C          59.6368   95.4031   -6.1858 C.3     1  UNL1        0.0804
      6 N          58.7519   95.2341   -7.3852 N.3     1  UNL1       -0.2969
      7 C          57.6502   94.2163   -7.3670 C.3     1  UNL1        0.0714
      8 C          57.4334   93.3674   -6.1495 C.3     1  UNL1        0.0490
      9 C          58.3183   93.5364   -4.9501 C.3     1  UNL1        0.1224
     10 O          59.1188   93.5917   -3.6827 O.3     1  UNL1       -0.3492
     11 C          58.5582   92.5726   -2.7355 C.3     1  UNL1        0.1687
     12 C          57.4112   91.8874   -3.4174 C.ar    1  UNL1        0.0079
     13 C          56.4827   90.7982   -2.9690 C.ar    1  UNL1        0.0299
     14 C          55.4058   90.3044   -3.8891 C.ar    1  UNL1        0.1671
     15 F          54.4773   89.2152   -3.4407 F       1  UNL1       -0.2018
     16 C          55.2576   90.9000   -5.2578 C.ar    1  UNL1        0.1671
     17 F          54.1808   90.4063   -6.1780 F       1  UNL1       -0.2018
     18 C          56.1862   91.9894   -5.7064 C.ar    1  UNL1        0.0297
     19 C          57.2630   92.4831   -4.7862 C.ar    1  UNL1        0.0033
     20 H          59.3601   94.9958   -8.1686 H       1  UNL1        0.1233
     21 C          58.5209   96.2587   -2.6692 C.3     1  UNL1        0.0758
     22 C          57.3961   96.8560   -3.4616 C.3     1  UNL1        0.0215
     23 C          57.3346   96.8450   -1.9630 C.3     1  UNL1        0.0215
     24 C          60.7402   95.7443   -1.4200 C.3     1  UNL1        0.1200
     25 C          63.3133   94.6669   -0.3162 C.ar    1  UNL1       -0.0223
     26 C          64.5998   94.1281    0.2357 C.ar    1  UNL1       -0.0043
     27 C          64.5754   93.1082    1.3353 C.ar    1  UNL1       -0.0003
     28 C          63.2646   92.6271    1.8831 C.ar    1  UNL1       -0.0000
     29 C          61.9781   93.1658    1.3312 C.ar    1  UNL1       -0.0006
     30 C          60.6671   92.6846    1.8789 C.ar    1  UNL1       -0.0000
     31 C          59.3806   93.2233    1.3270 C.ar    1  UNL1       -0.0003
     32 C          59.4050   94.2433    0.2274 C.ar    1  UNL1       -0.0026
     33 C          60.7158   94.7244   -0.3204 C.ar    1  UNL1       -0.0026
     34 C          62.0024   94.1857    0.2315 C.ar    1  UNL1       -0.0063
     35 C          63.3376   95.6868   -1.4158 C.3     1  UNL1        0.0289
     36 C          64.6229   95.9939   -2.1256 C.3     1  UNL1        0.0367
     37 C          64.7187   95.8200   -3.6124 C.3     1  UNL1        0.1426
     38 C          65.0098   94.2745   -5.6805 C.3     1  UNL1        0.1741
     39 O          64.8313   94.4448   -4.2009 O.3     1  UNL1       -0.3511
@<TRIPOS>BOND
     1    38    39    1
     2    39    37    1
     3    37    36    1
     4    36    35    1
     5    35    25    1
     6    25    26   ar
     7    26    27   ar
     8    27    28   ar
     9    28    29   ar
    10    29    30   ar
    11    30    31   ar
    12    31    32   ar
    13    32    33   ar
    14    33    24    1
    15    24     1    1
    16     1     2   am
    17     2     3    2
    18     4     2    1
    19     4     5    1
    20     5     6    1
    21     6     7    1
    22     7     8    1
    23     9     8    1
    24     9    10    1
    25    10    11    1
    26    11    12    1
    27    12    13   ar
    28    13    14   ar
    29    14    15    1
    30    14    16   ar
    31    16    17    1
    32    16    18   ar
    33    18    19   ar
    34     1    21    1
    35    21    22    1
    36    22    23    1
    37    33    34   ar
    38    34    25   ar
    39    34    29   ar
    40     9     4    1
    41    19    12   ar
    42    23    21    1
    43    19     9    1
    44     6    20    1
@<TRIPOS>MOLECULE
*****
 39 44 0 0 0
SMALL
GASTEIGER

@<TRIPOS>ATOM
      1 N          59.4744   95.2309   -2.0335 N.am    1  UNL1       -0.2770
      2 C          59.9699   94.3928   -3.1746 C.2     1  UNL1        0.2294
      3 O          61.1800   93.5245   -2.9974 O.2     1  UNL1       -0.2747
      4 C          59.2551   94.4232   -4.4931 C.3     1  UNL1        0.1211
      5 C          59.6486   95.4263   -5.5366 C.3     1  UNL1        0.0804
      6 N          58.9338   95.4567   -6.8550 N.3     1  UNL1       -0.2969
      7 C          57.8257   94.4838   -7.1299 C.3     1  UNL1        0.0714
      8 C          57.4322   93.4807   -6.0864 C.3     1  UNL1        0.0490
      9 C          58.1470   93.4504   -4.7680 C.3     1  UNL1        0.1224
     10 O          58.7672   93.3009   -3.4104 O.3     1  UNL1       -0.3492
     11 C          58.0678   92.1787   -2.7022 C.3     1  UNL1        0.1687
     12 C          57.0153   91.6345   -3.6221 C.ar    1  UNL1        0.0079
     13 C          56.0187   90.5250   -3.4622 C.ar    1  UNL1        0.0299
     14 C          55.0710   90.2013   -4.5790 C.ar    1  UNL1        0.1671
     15 F          54.0745   89.0917   -4.4191 F       1  UNL1       -0.2018
     16 C          55.1200   90.9872   -5.8557 C.ar    1  UNL1        0.1671
     17 F          54.1723   90.6635   -6.9724 F       1  UNL1       -0.2018
     18 C          56.1166   92.0968   -6.0157 C.ar    1  UNL1        0.0297
     19 C          57.0642   92.4205   -4.8989 C.ar    1  UNL1        0.0033
     20 H          59.6401   95.3100   -7.5762 H       1  UNL1        0.1233
     21 C          58.2642   96.0992   -2.2108 C.3     1  UNL1        0.0758
     22 C          57.3248   96.8511   -3.1064 C.3     1  UNL1        0.0215
     23 C          57.1075   96.8513   -1.6223 C.3     1  UNL1        0.0215
     24 C          60.1891   95.2005   -0.7151 C.3     1  UNL1        0.1200
     25 C          61.9253   93.3605    0.8973 C.ar    1  UNL1       -0.0223
     26 C          62.7934   92.4405    1.7035 C.ar    1  UNL1       -0.0043
     27 C          64.2756   92.6645    1.7585 C.ar    1  UNL1       -0.0003
     28 C          64.8896   93.8084    1.0074 C.ar    1  UNL1       -0.0000
     29 C          64.0215   94.7284    0.2012 C.ar    1  UNL1       -0.0006
     30 C          64.6356   95.8724   -0.5500 C.ar    1  UNL1       -0.0000
     31 C          63.7674   96.7924   -1.3562 C.ar    1  UNL1       -0.0003
     32 C          62.2853   96.5685   -1.4112 C.ar    1  UNL1       -0.0026
     33 C          61.6712   95.4245   -0.6600 C.ar    1  UNL1       -0.0026
     34 C          62.5394   94.5045    0.1462 C.ar    1  UNL1       -0.0063
     35 C          60.4431   93.1365    0.8423 C.3     1  UNL1        0.0289
     36 C          59.6036   93.3692    2.0634 C.3     1  UNL1        0.0367
     37 C          59.8016   92.5185    3.2829 C.3     1  UNL1        0.1426
     38 C          57.8750   91.6602    4.8000 C.3     1  UNL1        0.1741
     39 O          58.9088   92.6973    4.4750 O.3     1  UNL1       -0.3511
@<TRIPOS>BOND
     1    38    39    1
     2    39    37    1
     3    37    36    1
     4    36    35    1
     5    35    25    1
     6    25    26   ar
     7    26    27   ar
     8    27    28   ar
     9    28    29   ar
    10    29    30   ar
    11    30    31   ar
    12    31    32   ar
    13    32    33   ar
    14    33    24    1
    15    24     1    1
    16     1     2   am
    17     2     3    2
    18     4     2    1
    19     4     5    1
    20     5     6    1
    21     6     7    1
    22     7     8    1
    23     9     8    1
    24     9    10    1
    25    10    11    1
    26    11    12    1
    27    12    13   ar
    28    13    14   ar
    29    14    15    1
    30    14    16   ar
    31    16    17    1
    32    16    18   ar
    33    18    19   ar
    34     1    21    1
    35    21    22    1
    36    22    23    1
    37    33    34   ar
    38    34    25   ar
    39    34    29   ar
    40     9     4    1
    41    19    12   ar
    42    23    21    1
    43    19     9    1
    44     6    20    1
@<TRIPOS>MOLECULE
*****
 39 44 0 0 0
SMALL
GASTEIGER

@<TRIPOS>ATOM
      1 N          63.2951   86.9347   13.3366 N.am    1  UNL1       -0.2770
      2 C          62.9069   88.3680   13.1246 C.2     1  UNL1        0.2294
      3 O          61.9405   88.7302   12.0361 O.2     1  UNL1       -0.2747
      4 C          63.4852   89.4392   14.0011 C.3     1  UNL1        0.1211
      5 C          63.4103   89.3087   15.4935 C.3     1  UNL1        0.0804
      6 N          63.9886   90.3798   16.3699 N.3     1  UNL1       -0.2969
      7 C          64.6418   91.5815   15.7540 C.3     1  UNL1        0.0714
      8 C          64.7167   91.7120   14.2616 C.3     1  UNL1        0.0490
      9 C          64.1384   90.6408   13.3851 C.3     1  UNL1        0.1224
     10 O          63.6072   89.6559   12.3862 O.3     1  UNL1       -0.3492
     11 C          63.8982   90.1855   11.0132 C.3     1  UNL1        0.1687
     12 C          64.6092   91.4977   11.1636 C.ar    1  UNL1        0.0079
     13 C          65.1405   92.4727   10.1552 C.ar    1  UNL1        0.0299
     14 C          65.8205   93.7291   10.6126 C.ar    1  UNL1        0.1671
     15 F          66.3518   94.7041    9.6042 F       1  UNL1       -0.2018
     16 C          65.9689   94.0105   12.0785 C.ar    1  UNL1        0.1671
     17 F          66.6488   95.2669   12.5359 F       1  UNL1       -0.2018
     18 C          65.4375   93.0355   13.0870 C.ar    1  UNL1        0.0297
     19 C          64.7577   91.7791   12.6296 C.ar    1  UNL1        0.0033
     20 H          64.6914   89.9317   16.9579 H       1  UNL1        0.1233
     21 C          64.2616   86.5726   14.4251 C.3     1  UNL1        0.0758
     22 C          65.6673   86.3177   14.8824 C.3     1  UNL1        0.0215
     23 C          64.5298   86.2003   15.8532 C.3     1  UNL1        0.0215
     24 C          62.7169   85.8635   12.4601 C.3     1  UNL1        0.1200
     25 C          63.2759   83.5037   10.6942 C.ar    1  UNL1       -0.0223
     26 C          63.5554   82.3238    9.8112 C.ar    1  UNL1       -0.0043
     27 C          63.3828   80.9317   10.3427 C.ar    1  UNL1       -0.0003
     28 C          62.9309   80.7196   11.7572 C.ar    1  UNL1       -0.0000
     29 C          62.6514   81.8995   12.6401 C.ar    1  UNL1       -0.0006
     30 C          62.1993   81.6874   14.0546 C.ar    1  UNL1       -0.0000
     31 C          61.9199   82.8674   14.9375 C.ar    1  UNL1       -0.0003
     32 C          62.0924   84.2594   14.4061 C.ar    1  UNL1       -0.0026
     33 C          62.5444   84.4715   12.9916 C.ar    1  UNL1       -0.0026
     34 C          62.8239   83.2916   12.1086 C.ar    1  UNL1       -0.0063
     35 C          63.4484   84.8957   10.1627 C.3     1  UNL1        0.0289
     36 C          62.8363   85.2776    8.8476 C.3     1  UNL1        0.0367
     37 C          61.6111   86.1423    8.8134 C.3     1  UNL1        0.1426
     38 C          59.2999   86.7199    7.7768 C.3     1  UNL1        0.1741
     39 O          60.5836   85.9450    7.7385 O.3     1  UNL1       -0.3511
@<TRIPOS>BOND
     1    38    39    1
     2    39    37    1
     3    37    36    1
     4    36    35    1
     5    35    25    1
     6    25    26   ar
     7    26    27   ar
     8    27    28   ar
     9    28    29   ar
    10    29    30   ar
    11    30    31   ar
    12    31    32   ar
    13    32    33   ar
    14    33    24    1
    15    24     1    1
    16     1     2   am
    17     2     3    2
    18     4     2    1
    19     4     5    1
    20     5     6    1
    21     6     7    1
    22     7     8    1
    23     9     8    1
    24     9    10    1
    25    10    11    1
    26    11    12    1
    27    12    13   ar
    28    13    14   ar
    29    14    15    1
    30    14    16   ar
    31    16    17    1
    32    16    18   ar
    33    18    19   ar
    34     1    21    1
    35    21    22    1
    36    22    23    1
    37    33    34   ar
    38    34    25   ar
    39    34    29   ar
    40     9     4    1
    41    19    12   ar
    42    23    21    1
    43    19     9    1
    44     6    20    1
@<TRIPOS>MOLECULE
*****
 39 44 0 0 0
SMALL
GASTEIGER

@<TRIPOS>ATOM
      1 N          62.8086   87.3225   13.1465 N.am    1  UNL1       -0.2770
      2 C          62.5663   88.7984   13.0325 C.2     1  UNL1        0.2294
      3 O          61.5641   89.3199   12.0458 O.2     1  UNL1       -0.2747
      4 C          63.3262   89.7529   13.9054 C.3     1  UNL1        0.1211
      5 C          63.3391   89.5609   15.3929 C.3     1  UNL1        0.0804
      6 N          64.0990   90.5153   16.2657 N.3     1  UNL1       -0.2969
      7 C          64.8458   91.6616   15.6508 C.3     1  UNL1        0.0714
      8 C          64.8329   91.8536   14.1633 C.3     1  UNL1        0.0490
      9 C          64.0730   90.8992   13.2905 C.3     1  UNL1        0.1224
     10 O          63.3616   90.0308   12.2956 O.3     1  UNL1       -0.3492
     11 C          63.6181   90.5881   10.9268 C.3     1  UNL1        0.1687
     12 C          64.4880   91.8011   11.0757 C.ar    1  UNL1        0.0079
     13 C          65.0604   92.7552   10.0699 C.ar    1  UNL1        0.0299
     14 C          65.9140   93.9018   10.5248 C.ar    1  UNL1        0.1671
     15 F          66.4864   94.8559    9.5190 F       1  UNL1       -0.2018
     16 C          66.1952   94.0940   11.9856 C.ar    1  UNL1        0.1671
     17 F          67.0488   95.2404   12.4406 F       1  UNL1       -0.2018
     18 C          65.6228   93.1398   12.9915 C.ar    1  UNL1        0.0297
     19 C          64.7692   91.9933   12.5366 C.ar    1  UNL1        0.0033
     20 H          64.7825   89.9616   16.7821 H       1  UNL1        0.1233
     21 C          63.8108   86.8011   14.1333 C.3     1  UNL1        0.0758
     22 C          65.2319   86.4938   14.5024 C.3     1  UNL1        0.0215
     23 C          64.1256   86.2052   15.4734 C.3     1  UNL1        0.0215
     24 C          62.0488   86.3681   12.2738 C.3     1  UNL1        0.1200
     25 C          61.7208   86.1128    9.3027 C.ar    1  UNL1       -0.0223
     26 C          61.5568   85.9851    7.8172 C.ar    1  UNL1       -0.0043
     27 C          62.2864   84.9070    7.0720 C.ar    1  UNL1       -0.0003
     28 C          63.1800   83.9565    7.8123 C.ar    1  UNL1       -0.0000
     29 C          63.3440   84.0842    9.2978 C.ar    1  UNL1       -0.0006
     30 C          64.2376   83.1337   10.0382 C.ar    1  UNL1       -0.0000
     31 C          64.4016   83.2614   11.5237 C.ar    1  UNL1       -0.0003
     32 C          63.6720   84.3395   12.2689 C.ar    1  UNL1       -0.0026
     33 C          62.7784   85.2900   11.5286 C.ar    1  UNL1       -0.0026
     34 C          62.6144   85.1623   10.0430 C.ar    1  UNL1       -0.0063
     35 C          60.9912   87.1909   10.0479 C.3     1  UNL1        0.0289
     36 C          59.7395   87.7848    9.4729 C.3     1  UNL1        0.0367
     37 C          59.8273   88.9286    8.5066 C.3     1  UNL1        0.1426
     38 C          59.2955   89.8930    6.1534 C.3     1  UNL1        0.1741
     39 O          59.4981   88.7144    7.0589 O.3     1  UNL1       -0.3511
@<TRIPOS>BOND
     1    38    39    1
     2    39    37    1
     3    37    36    1
     4    36    35    1
     5    35    25    1
     6    25    26   ar
     7    26    27   ar
     8    27    28   ar
     9    28    29   ar
    10    29    30   ar
    11    30    31   ar
    12    31    32   ar
    13    32    33   ar
    14    33    24    1
    15    24     1    1
    16     1     2   am
    17     2     3    2
    18     4     2    1
    19     4     5    1
    20     5     6    1
    21     6     7    1
    22     7     8    1
    23     9     8    1
    24     9    10    1
    25    10    11    1
    26    11    12    1
    27    12    13   ar
    28    13    14   ar
    29    14    15    1
    30    14    16   ar
    31    16    17    1
    32    16    18   ar
    33    18    19   ar
    34     1    21    1
    35    21    22    1
    36    22    23    1
    37    33    34   ar
    38    34    25   ar
    39    34    29   ar
    40     9     4    1
    41    19    12   ar
    42    23    21    1
    43    19     9    1
    44     6    20    1
@<TRIPOS>MOLECULE
*****
 39 44 0 0 0
SMALL
GASTEIGER

@<TRIPOS>ATOM
      1 N          71.1403   74.9114   14.5007 N.am    1  UNL1       -0.2770
      2 C          72.4628   75.5905   14.3010 C.2     1  UNL1        0.2294
      3 O          73.6324   74.8138   13.7731 O.2     1  UNL1       -0.2747
      4 C          72.6156   77.0462   14.6291 C.3     1  UNL1        0.1211
      5 C          72.7936   77.4791   16.0541 C.3     1  UNL1        0.0804
      6 N          72.9464   78.9348   16.3822 N.3     1  UNL1       -0.2969
      7 C          72.9211   79.9575   15.2852 C.3     1  UNL1        0.0714
      8 C          72.7431   79.5246   13.8601 C.3     1  UNL1        0.0490
      9 C          72.5903   78.0689   13.5321 C.3     1  UNL1        0.1224
     10 O          72.4260   76.6567   13.0535 O.3     1  UNL1       -0.3492
     11 C          72.2794   76.6871   11.5610 C.3     1  UNL1        0.1687
     12 C          72.3531   78.1181   11.1170 C.ar    1  UNL1        0.0079
     13 C          72.2700   78.7537    9.7610 C.ar    1  UNL1        0.0299
     14 C          72.3790   80.2434    9.6230 C.ar    1  UNL1        0.1671
     15 F          72.2960   80.8791    8.2670 F       1  UNL1       -0.2018
     16 C          72.5711   81.0974   10.8412 C.ar    1  UNL1        0.1671
     17 F          72.6802   82.5870   10.7032 F       1  UNL1       -0.2018
     18 C          72.6542   80.4617   12.1973 C.ar    1  UNL1        0.0297
     19 C          72.5452   78.9720   12.3353 C.ar    1  UNL1        0.0033
     20 H          73.8422   79.0367   16.8591 H       1  UNL1        0.1233
     21 C          69.9705   75.6881   15.0286 C.3     1  UNL1        0.0758
     22 C          69.0845   76.8974   14.9775 C.3     1  UNL1        0.0215
     23 C          68.8306   75.8241   15.9940 C.3     1  UNL1        0.0215
     24 C          70.9874   73.4558   14.1726 C.3     1  UNL1        0.1200
     25 C          72.3936   70.8622   13.6286 C.ar    1  UNL1       -0.0223
     26 C          73.0966   69.5654   13.3566 C.ar    1  UNL1       -0.0043
     27 C          73.2167   68.5356   14.4406 C.ar    1  UNL1       -0.0003
     28 C          72.6338   68.8026   15.7966 C.ar    1  UNL1       -0.0000
     29 C          71.9308   70.0994   16.0686 C.ar    1  UNL1       -0.0006
     30 C          71.3478   70.3664   17.4247 C.ar    1  UNL1       -0.0000
     31 C          70.6448   71.6632   17.6967 C.ar    1  UNL1       -0.0003
     32 C          70.5246   72.6930   16.6127 C.ar    1  UNL1       -0.0026
     33 C          71.1075   72.4260   15.2567 C.ar    1  UNL1       -0.0026
     34 C          71.8106   71.1292   14.9846 C.ar    1  UNL1       -0.0063
     35 C          72.2734   71.8919   12.5445 C.3     1  UNL1        0.0289
     36 C          71.5967   71.5446   11.2518 C.3     1  UNL1        0.0367
     37 C          70.1265   71.2479   11.2309 C.3     1  UNL1        0.1426
     38 C          69.0071   68.9883   11.8566 C.3     1  UNL1        0.1741
     39 O          69.6421   69.8845   10.8350 O.3     1  UNL1       -0.3511
@<TRIPOS>BOND
     1    38    39    1
     2    39    37    1
     3    37    36    1
     4    36    35    1
     5    35    25    1
     6    25    26   ar
     7    26    27   ar
     8    27    28   ar
     9    28    29   ar
    10    29    30   ar
    11    30    31   ar
    12    31    32   ar
    13    32    33   ar
    14    33    24    1
    15    24     1    1
    16     1     2   am
    17     2     3    2
    18     4     2    1
    19     4     5    1
    20     5     6    1
    21     6     7    1
    22     7     8    1
    23     9     8    1
    24     9    10    1
    25    10    11    1
    26    11    12    1
    27    12    13   ar
    28    13    14   ar
    29    14    15    1
    30    14    16   ar
    31    16    17    1
    32    16    18   ar
    33    18    19   ar
    34     1    21    1
    35    21    22    1
    36    22    23    1
    37    33    34   ar
    38    34    25   ar
    39    34    29   ar
    40     9     4    1
    41    19    12   ar
    42    23    21    1
    43    19     9    1
    44     6    20    1
