@<TRIPOS>MOLECULE
*****
 36 40 0 0 0
SMALL
GASTEIGER

@<TRIPOS>ATOM
      1 C          62.0429   87.0097   10.4383 C.2     1  UNL1        0.2320
      2 O          62.4480   87.3835    9.0432 O.2     1  UNL1       -0.2744
      3 N          62.1824   88.0050   11.5518 N.am    1  UNL1       -0.2639
      4 H          61.9165   87.7597   12.4675 H       1  UNL1        0.1567
      5 C          62.7269   89.3739   11.2703 C.ar    1  UNL1        0.1655
      6 N          63.8038   90.0715   12.0473 N.ar    1  UNL1       -0.2239
      7 C          64.0326   91.4144   11.4196 C.ar    1  UNL1        0.0913
      8 C          63.0970   91.5470   10.2547 C.ar    1  UNL1        0.0573
      9 S          62.2901   90.2859   10.1624 S.2     1  UNL1       -0.0508
     10 C          65.0230   92.4441   11.8766 C.ar    1  UNL1        0.0403
     11 C          65.5332   93.5979   11.0652 C.ar    1  UNL1        0.1021
     12 N          66.5026   94.3676   11.9124 N.ar    1  UNL1       -0.2269
     13 C          66.5916   93.6895   13.2474 C.ar    1  UNL1        0.1406
     14 N          67.3872   94.0009   14.4803 N.ar    1  UNL1       -0.3374
     15 C          67.2683   93.1236   15.6910 C.ar    1  UNL1        0.0735
     16 C          66.3538   91.9347   15.6689 C.ar    1  UNL1        0.0186
     17 C          65.5583   91.6233   14.4361 C.ar    1  UNL1        0.0046
     18 C          65.6772   92.5007   13.2253 C.ar    1  UNL1        0.0370
     19 H          67.9874   94.7812   14.4948 H       1  UNL1        0.1674
     20 C          61.4984   85.6407   10.7198 C.3     1  UNL1        0.1118
     21 C          63.3625   82.7463   12.6944 C.ar    1  UNL1        0.1383
     22 C          64.3072   82.2477   11.6413 C.ar    1  UNL1        0.0369
     23 C          64.3156   82.8800   10.2811 C.ar    1  UNL1        0.0028
     24 C          63.3794   84.0110    9.9739 C.ar    1  UNL1       -0.0036
     25 C          62.4347   84.5097   11.0270 C.ar    1  UNL1       -0.0101
     26 C          62.4262   83.8774   12.3872 C.ar    1  UNL1        0.0331
     27 O          63.3540   82.1140   14.0545 O.3     1  UNL1       -0.4740
     28 C          63.5440   82.9622   15.2771 C.3     1  UNL1        0.2226
     29 C          64.5848   84.0423   15.2861 C.3     1  UNL1        0.1201
     30 C          63.0018   89.7250   16.3822 C.3     1  UNL1        0.0897
     31 N          63.3975   88.3043   16.1083 N.3     1  UNL1       -0.2691
     32 C          64.2249   87.9757   14.9010 C.3     1  UNL1        0.0897
     33 C          64.6207   86.5551   14.6270 C.3     1  UNL1        0.0898
     34 N          64.1890   85.4630   15.5602 N.3     1  UNL1       -0.2672
     35 C          63.3616   85.7915   16.7674 C.3     1  UNL1        0.0898
     36 C          62.9658   87.2122   17.0414 C.3     1  UNL1        0.0897
@<TRIPOS>BOND
     1    30    31    1
     2    31    32    1
     3    32    33    1
     4    33    34    1
     5    34    29    1
     6    29    28    1
     7    28    27    1
     8    27    21    1
     9    21    22   ar
    10    22    23   ar
    11    23    24   ar
    12    24    25   ar
    13    25    20    1
    14    20     1    1
    15     1     2    2
    16     1     3   am
    17     3     5    1
    18     5     6   ar
    19     6     7   ar
    20     7    10    1
    21    10    11   ar
    22    11    12   ar
    23    12    13   ar
    24    13    14   ar
    25    14    15   ar
    26    15    16   ar
    27    16    17   ar
    28    17    18   ar
    29     7     8   ar
    30     8     9   ar
    31    25    26   ar
    32    34    35    1
    33    35    36    1
    34    36    31    1
    35    26    21   ar
    36     9     5   ar
    37    18    10   ar
    38    18    13    1
    39     3     4    1
    40    14    19    1
@<TRIPOS>MOLECULE
*****
 36 40 0 0 0
SMALL
GASTEIGER

@<TRIPOS>ATOM
      1 C          63.8030   89.4203   15.2328 C.2     1  UNL1        0.2320
      2 O          62.4979   89.2976   15.9619 O.2     1  UNL1       -0.2744
      3 N          64.5275   88.1877   14.7792 N.am    1  UNL1       -0.2639
      4 H          65.3841   88.2683   14.3006 H       1  UNL1        0.1567
      5 C          63.9469   86.8324   15.0546 C.ar    1  UNL1        0.1655
      6 N          63.7353   85.7423   14.0462 N.ar    1  UNL1       -0.2239
      7 C          63.1336   84.5653   14.7552 C.ar    1  UNL1        0.0913
      8 C          62.9733   84.9280   16.2018 C.ar    1  UNL1        0.0573
      9 S          63.4759   86.3291   16.3869 S.2     1  UNL1       -0.0508
     10 C          62.7581   83.2556   14.1277 C.ar    1  UNL1        0.0403
     11 C          61.9285   82.1794   14.7629 C.ar    1  UNL1        0.1021
     12 N          61.8040   81.0509   13.7826 N.ar    1  UNL1       -0.2269
     13 C          62.5566   81.4296   12.5416 C.ar    1  UNL1        0.1406
     14 N          62.7812   80.7098   11.2450 N.ar    1  UNL1       -0.3374
     15 C          63.5955   81.3525   10.1616 C.ar    1  UNL1        0.0735
     16 C          64.1852   82.7152   10.3749 C.ar    1  UNL1        0.0186
     17 C          63.9606   83.4350   11.6715 C.ar    1  UNL1        0.0046
     18 C          63.1463   82.7923   12.7549 C.ar    1  UNL1        0.0370
     19 H          62.3942   79.8154   11.1050 H       1  UNL1        0.1674
     20 C          64.3837   90.7757   14.9573 C.3     1  UNL1        0.1118
     21 C          63.6566   91.2639   11.0865 C.ar    1  UNL1        0.1383
     22 C          64.7144   92.2635   10.7233 C.ar    1  UNL1        0.0369
     23 C          65.6619   92.7672   11.7714 C.ar    1  UNL1        0.0028
     24 C          65.5517   92.2713   13.1827 C.ar    1  UNL1       -0.0036
     25 C          64.4939   91.2716   13.5460 C.ar    1  UNL1       -0.0101
     26 C          63.5463   90.7679   12.4979 C.ar    1  UNL1        0.0331
     27 O          62.7091   90.7603   10.0384 O.3     1  UNL1       -0.4740
     28 C          61.2915   90.4331   10.4038 C.3     1  UNL1        0.2226
     29 C          60.9141   89.0251   10.7577 C.3     1  UNL1        0.1201
     30 C          61.4256   84.6641    6.6687 C.3     1  UNL1        0.0897
     31 N          61.2977   85.7544    7.6909 N.3     1  UNL1       -0.2691
     32 C          62.4208   86.0194    8.6493 C.3     1  UNL1        0.0897
     33 C          62.2929   87.1096    9.6715 C.3     1  UNL1        0.0898
     34 N          61.0420   87.9349    9.7355 N.3     1  UNL1       -0.2672
     35 C          59.9189   87.6699    8.7771 C.3     1  UNL1        0.0898
     36 C          60.0467   86.5796    7.7549 C.3     1  UNL1        0.0897
@<TRIPOS>BOND
     1    30    31    1
     2    31    32    1
     3    32    33    1
     4    33    34    1
     5    34    29    1
     6    29    28    1
     7    28    27    1
     8    27    21    1
     9    21    22   ar
    10    22    23   ar
    11    23    24   ar
    12    24    25   ar
    13    25    20    1
    14    20     1    1
    15     1     2    2
    16     1     3   am
    17     3     5    1
    18     5     6   ar
    19     6     7   ar
    20     7    10    1
    21    10    11   ar
    22    11    12   ar
    23    12    13   ar
    24    13    14   ar
    25    14    15   ar
    26    15    16   ar
    27    16    17   ar
    28    17    18   ar
    29     7     8   ar
    30     8     9   ar
    31    25    26   ar
    32    34    35    1
    33    35    36    1
    34    36    31    1
    35    26    21   ar
    36     9     5   ar
    37    18    10   ar
    38    18    13    1
    39     3     4    1
    40    14    19    1
@<TRIPOS>MOLECULE
*****
 36 40 0 0 0
SMALL
GASTEIGER

@<TRIPOS>ATOM
      1 C          61.3939   87.8436   11.3317 C.2     1  UNL1        0.2320
      2 O          60.3872   88.8428   11.8198 O.2     1  UNL1       -0.2744
      3 N          62.8600   88.1396   11.4448 N.am    1  UNL1       -0.2639
      4 H          63.5208   87.4839   11.1245 H       1  UNL1        0.1567
      5 C          63.3195   89.4347   12.0460 C.ar    1  UNL1        0.1655
      6 N          64.0411   89.5940   13.3514 N.ar    1  UNL1       -0.2239
      7 C          64.3057   91.0556   13.5596 C.ar    1  UNL1        0.0913
      8 C          63.7476   91.7999   12.3829 C.ar    1  UNL1        0.0573
      9 S          63.1381   90.7981   11.4475 S.2     1  UNL1       -0.0508
     10 C          65.0055   91.6660   14.7376 C.ar    1  UNL1        0.0403
     11 C          64.3792   92.0006   16.0589 C.ar    1  UNL1        0.1021
     12 N          65.4411   92.5903   16.9390 N.ar    1  UNL1       -0.2269
     13 C          66.7236   92.6202   16.1617 C.ar    1  UNL1        0.1406
     14 N          68.1018   93.0937   16.5170 N.ar    1  UNL1       -0.3374
     15 C          69.2108   92.9960   15.5117 C.ar    1  UNL1        0.0735
     16 C          68.9415   92.4247   14.1512 C.ar    1  UNL1        0.0186
     17 C          67.5633   91.9512   13.7959 C.ar    1  UNL1        0.0046
     18 C          66.4544   92.0489   14.8011 C.ar    1  UNL1        0.0370
     19 H          68.2785   93.4687   17.4100 H       1  UNL1        0.1674
     20 C          60.9345   86.5485   10.7305 C.3     1  UNL1        0.1118
     21 C          63.3065   83.4041   11.2170 C.ar    1  UNL1        0.1383
     22 C          63.9149   83.2939    9.8503 C.ar    1  UNL1        0.0369
     23 C          63.5298   84.2685    8.7771 C.ar    1  UNL1        0.0028
     24 C          62.5364   85.3533    9.0704 C.ar    1  UNL1       -0.0036
     25 C          61.9279   85.4636   10.4371 C.ar    1  UNL1       -0.0101
     26 C          62.3130   84.4890   11.5104 C.ar    1  UNL1        0.0331
     27 O          63.6915   82.4295   12.2902 O.3     1  UNL1       -0.4740
     28 C          63.0026   82.4696   13.6220 C.3     1  UNL1        0.2226
     29 C          63.7513   82.9227   14.8403 C.3     1  UNL1        0.1201
     30 C          63.1468   88.5578   16.8100 C.3     1  UNL1        0.0897
     31 N          63.2979   87.1490   16.3177 N.3     1  UNL1       -0.2691
     32 C          64.2758   86.8377   15.2237 C.3     1  UNL1        0.0897
     33 C          64.4269   85.4290   14.7313 C.3     1  UNL1        0.0898
     34 N          63.6001   84.3314   15.3328 N.3     1  UNL1       -0.2672
     35 C          62.6222   84.6427   16.4267 C.3     1  UNL1        0.0898
     36 C          62.4711   86.0515   16.9192 C.3     1  UNL1        0.0897
@<TRIPOS>BOND
     1    30    31    1
     2    31    32    1
     3    32    33    1
     4    33    34    1
     5    34    29    1
     6    29    28    1
     7    28    27    1
     8    27    21    1
     9    21    22   ar
    10    22    23   ar
    11    23    24   ar
    12    24    25   ar
    13    25    20    1
    14    20     1    1
    15     1     2    2
    16     1     3   am
    17     3     5    1
    18     5     6   ar
    19     6     7   ar
    20     7    10    1
    21    10    11   ar
    22    11    12   ar
    23    12    13   ar
    24    13    14   ar
    25    14    15   ar
    26    15    16   ar
    27    16    17   ar
    28    17    18   ar
    29     7     8   ar
    30     8     9   ar
    31    25    26   ar
    32    34    35    1
    33    35    36    1
    34    36    31    1
    35    26    21   ar
    36     9     5   ar
    37    18    10   ar
    38    18    13    1
    39     3     4    1
    40    14    19    1
@<TRIPOS>MOLECULE
*****
 36 40 0 0 0
SMALL
GASTEIGER

@<TRIPOS>ATOM
      1 C          61.5079   88.2028   11.7169 C.2     1  UNL1        0.2320
      2 O          60.9066   89.5562   11.9553 O.2     1  UNL1       -0.2744
      3 N          62.8681   87.8802   12.2606 N.am    1  UNL1       -0.2639
      4 H          63.2628   86.9920   12.1041 H       1  UNL1        0.1567
      5 C          63.6271   88.9109   13.0425 C.ar    1  UNL1        0.1655
      6 N          64.1586   90.2079   12.5083 N.ar    1  UNL1       -0.2239
      7 C          64.8479   90.9243   13.6316 C.ar    1  UNL1        0.0913
      8 C          64.7424   90.0700   14.8600 C.ar    1  UNL1        0.0573
      9 S          63.9880   88.8257   14.4960 S.2     1  UNL1       -0.0508
     10 C          65.5239   92.2603   13.5421 C.ar    1  UNL1        0.0403
     11 C          66.1401   93.0147   14.6828 C.ar    1  UNL1        0.1021
     12 N          66.6995   94.2971   14.1419 N.ar    1  UNL1       -0.2269
     13 C          66.4290   94.3353   12.6670 C.ar    1  UNL1        0.1406
     14 N          66.7504   95.3536   11.6137 N.ar    1  UNL1       -0.3374
     15 C          66.3452   95.1131   10.1896 C.ar    1  UNL1        0.0735
     16 C          65.6187   93.8543    9.8189 C.ar    1  UNL1        0.0186
     17 C          65.2973   92.8359   10.8723 C.ar    1  UNL1        0.0046
     18 C          65.7024   93.0764   12.2963 C.ar    1  UNL1        0.0370
     19 H          67.2272   96.1799   11.8570 H       1  UNL1        0.1674
     20 C          60.7489   87.1721   10.9350 C.3     1  UNL1        0.1118
     21 C          63.1737   84.3830    9.4886 C.ar    1  UNL1        0.1383
     22 C          62.9140   84.5169    8.0174 C.ar    1  UNL1        0.0369
     23 C          61.9326   85.5357    7.5186 C.ar    1  UNL1        0.0028
     24 C          61.2109   86.4208    8.4911 C.ar    1  UNL1       -0.0036
     25 C          61.4706   86.2870    9.9624 C.ar    1  UNL1       -0.0101
     26 C          62.4520   85.2681   10.4612 C.ar    1  UNL1        0.0331
     27 O          64.1551   83.3642    9.9874 O.3     1  UNL1       -0.4740
     28 C          63.7151   82.3144   10.9643 C.3     1  UNL1        0.2226
     29 C          64.3961   82.1961   12.2955 C.3     1  UNL1        0.1201
     30 C          62.7315   85.7397   16.8421 C.3     1  UNL1        0.0897
     31 N          63.1477   84.8539   15.7055 N.3     1  UNL1       -0.2691
     32 C          62.2686   83.7147   15.2817 C.3     1  UNL1        0.0897
     33 C          62.6848   82.8288   14.1451 C.3     1  UNL1        0.0898
     34 N          63.9800   83.0820   13.4322 N.3     1  UNL1       -0.2672
     35 C          64.8591   84.2211   13.8559 C.3     1  UNL1        0.0898
     36 C          64.4430   85.1071   14.9926 C.3     1  UNL1        0.0897
@<TRIPOS>BOND
     1    30    31    1
     2    31    32    1
     3    32    33    1
     4    33    34    1
     5    34    29    1
     6    29    28    1
     7    28    27    1
     8    27    21    1
     9    21    22   ar
    10    22    23   ar
    11    23    24   ar
    12    24    25   ar
    13    25    20    1
    14    20     1    1
    15     1     2    2
    16     1     3   am
    17     3     5    1
    18     5     6   ar
    19     6     7   ar
    20     7    10    1
    21    10    11   ar
    22    11    12   ar
    23    12    13   ar
    24    13    14   ar
    25    14    15   ar
    26    15    16   ar
    27    16    17   ar
    28    17    18   ar
    29     7     8   ar
    30     8     9   ar
    31    25    26   ar
    32    34    35    1
    33    35    36    1
    34    36    31    1
    35    26    21   ar
    36     9     5   ar
    37    18    10   ar
    38    18    13    1
    39     3     4    1
    40    14    19    1
@<TRIPOS>MOLECULE
*****
 36 40 0 0 0
SMALL
GASTEIGER

@<TRIPOS>ATOM
      1 C          62.4081   88.7334   11.5278 C.2     1  UNL1        0.2320
      2 O          62.4554   89.7986   10.4727 O.2     1  UNL1       -0.2744
      3 N          63.1804   88.9052   12.8021 N.am    1  UNL1       -0.2639
      4 H          63.1494   88.2061   13.4946 H       1  UNL1        0.1567
      5 C          64.0000   90.1422   13.0214 C.ar    1  UNL1        0.1655
      6 N          64.5018   91.0683   11.9535 N.ar    1  UNL1       -0.2239
      7 C          65.2736   92.1687   12.6192 C.ar    1  UNL1        0.0913
      8 C          65.2489   91.9228   14.0987 C.ar    1  UNL1        0.0573
      9 S          64.4618   90.6704   14.3473 S.2     1  UNL1       -0.0508
     10 C          65.9512   93.3141   11.9270 C.ar    1  UNL1        0.0403
     11 C          65.8204   94.7641   12.2878 C.ar    1  UNL1        0.1021
     12 N          66.6670   95.5566   11.3362 N.ar    1  UNL1       -0.2269
     13 C          67.3209   94.5963   10.3874 C.ar    1  UNL1        0.1406
     14 N          68.2620   94.8049    9.2382 N.ar    1  UNL1       -0.3374
     15 C          68.7607   93.6275    8.4540 C.ar    1  UNL1        0.0735
     16 C          68.3183   92.2415    8.8192 C.ar    1  UNL1        0.0186
     17 C          67.3772   92.0329    9.9684 C.ar    1  UNL1        0.0046
     18 C          66.8785   93.2103   10.7525 C.ar    1  UNL1        0.0370
     19 H          68.5523   95.7146    8.9985 H       1  UNL1        0.1674
     20 C          61.5885   87.4964   11.3085 C.3     1  UNL1        0.1118
     21 C          63.2124   83.8933   10.9454 C.ar    1  UNL1        0.1383
     22 C          63.4713   83.8467    9.4687 C.ar    1  UNL1        0.0369
     23 C          63.1027   85.0165    8.6052 C.ar    1  UNL1        0.0028
     24 C          62.4752   86.2331    9.2184 C.ar    1  UNL1       -0.0036
     25 C          62.2161   86.2799   10.6952 C.ar    1  UNL1       -0.0101
     26 C          62.5847   85.1100   11.5587 C.ar    1  UNL1        0.0331
     27 O          63.5810   82.7235   11.8088 O.3     1  UNL1       -0.4740
     28 C          62.9491   82.5597   13.1594 C.3     1  UNL1        0.2226
     29 C          63.7311   82.8845   14.3976 C.3     1  UNL1        0.1201
     30 C          63.1048   88.2437   17.0218 C.3     1  UNL1        0.0897
     31 N          63.2615   86.9040   16.3657 N.3     1  UNL1       -0.2691
     32 C          62.3685   85.7657   16.7621 C.3     1  UNL1        0.0897
     33 C          62.5250   84.4260   16.1061 C.3     1  UNL1        0.0898
     34 N          63.5746   84.2243   15.0536 N.3     1  UNL1       -0.2672
     35 C          64.4676   85.3625   14.6572 C.3     1  UNL1        0.0898
     36 C          64.3110   86.7023   15.3132 C.3     1  UNL1        0.0897
@<TRIPOS>BOND
     1    30    31    1
     2    31    32    1
     3    32    33    1
     4    33    34    1
     5    34    29    1
     6    29    28    1
     7    28    27    1
     8    27    21    1
     9    21    22   ar
    10    22    23   ar
    11    23    24   ar
    12    24    25   ar
    13    25    20    1
    14    20     1    1
    15     1     2    2
    16     1     3   am
    17     3     5    1
    18     5     6   ar
    19     6     7   ar
    20     7    10    1
    21    10    11   ar
    22    11    12   ar
    23    12    13   ar
    24    13    14   ar
    25    14    15   ar
    26    15    16   ar
    27    16    17   ar
    28    17    18   ar
    29     7     8   ar
    30     8     9   ar
    31    25    26   ar
    32    34    35    1
    33    35    36    1
    34    36    31    1
    35    26    21   ar
    36     9     5   ar
    37    18    10   ar
    38    18    13    1
    39     3     4    1
    40    14    19    1
@<TRIPOS>MOLECULE
*****
 36 40 0 0 0
SMALL
GASTEIGER

@<TRIPOS>ATOM
      1 C          62.1675   86.3524   10.1725 C.2     1  UNL1        0.2320
      2 O          62.5917   87.1564    8.9794 O.2     1  UNL1       -0.2744
      3 N          62.0357   87.0121   11.5132 N.am    1  UNL1       -0.2639
      4 H          61.7572   86.4844   12.2962 H       1  UNL1        0.1567
      5 C          62.3281   88.4758   11.6607 C.ar    1  UNL1        0.1655
      6 N          63.5603   89.0714   12.2747 N.ar    1  UNL1       -0.2239
      7 C          63.4335   90.5647   12.2136 C.ar    1  UNL1        0.0913
      8 C          62.1228   90.8922   11.5618 C.ar    1  UNL1        0.0573
      9 S          61.4396   89.6013   11.2201 S.2     1  UNL1       -0.0508
     10 C          64.4404   91.5564   12.7161 C.ar    1  UNL1        0.0403
     11 C          64.9109   91.6940   14.1337 C.ar    1  UNL1        0.1021
     12 N          65.9150   92.8073   14.1829 N.ar    1  UNL1       -0.2269
     13 C          66.0650   93.3578   12.7956 C.ar    1  UNL1        0.1406
     14 N          66.9137   94.4631   12.2408 N.ar    1  UNL1       -0.3374
     15 C          66.8511   94.7954   10.7794 C.ar    1  UNL1        0.0735
     16 C          65.9397   94.0223    9.8729 C.ar    1  UNL1        0.0186
     17 C          65.0911   92.9169   10.4277 C.ar    1  UNL1        0.0046
     18 C          65.1537   92.5847   11.8891 C.ar    1  UNL1        0.0370
     19 H          67.5119   94.9705   12.8358 H       1  UNL1        0.1674
     20 C          61.8750   84.8885   10.0250 C.3     1  UNL1        0.1118
     21 C          63.3186   82.4756   12.8257 C.ar    1  UNL1        0.1383
     22 C          64.4737   81.8549   12.0973 C.ar    1  UNL1        0.0369
     23 C          64.7625   82.2454   10.6781 C.ar    1  UNL1        0.0028
     24 C          63.8963   83.2566    9.9873 C.ar    1  UNL1       -0.0036
     25 C          62.7413   83.8773   10.7157 C.ar    1  UNL1       -0.0101
     26 C          62.4524   83.4868   12.1350 C.ar    1  UNL1        0.0331
     27 O          63.0298   82.0850   14.2449 O.3     1  UNL1       -0.4740
     28 C          62.9244   83.1397   15.3063 C.3     1  UNL1        0.2226
     29 C          64.0841   84.0525   15.5744 C.3     1  UNL1        0.1201
     30 C          63.1374   89.8932   16.5694 C.3     1  UNL1        0.0897
     31 N          63.3740   88.4330   16.3207 N.3     1  UNL1       -0.2691
     32 C          64.1747   87.9951   15.1302 C.3     1  UNL1        0.0897
     33 C          64.4113   86.5350   14.8815 C.3     1  UNL1        0.0898
     34 N          63.8474   85.5127   15.8232 N.3     1  UNL1       -0.2672
     35 C          63.0468   85.9505   17.0137 C.3     1  UNL1        0.0898
     36 C          62.8101   87.4107   17.2624 C.3     1  UNL1        0.0897
@<TRIPOS>BOND
     1    30    31    1
     2    31    32    1
     3    32    33    1
     4    33    34    1
     5    34    29    1
     6    29    28    1
     7    28    27    1
     8    27    21    1
     9    21    22   ar
    10    22    23   ar
    11    23    24   ar
    12    24    25   ar
    13    25    20    1
    14    20     1    1
    15     1     2    2
    16     1     3   am
    17     3     5    1
    18     5     6   ar
    19     6     7   ar
    20     7    10    1
    21    10    11   ar
    22    11    12   ar
    23    12    13   ar
    24    13    14   ar
    25    14    15   ar
    26    15    16   ar
    27    16    17   ar
    28    17    18   ar
    29     7     8   ar
    30     8     9   ar
    31    25    26   ar
    32    34    35    1
    33    35    36    1
    34    36    31    1
    35    26    21   ar
    36     9     5   ar
    37    18    10   ar
    38    18    13    1
    39     3     4    1
    40    14    19    1
@<TRIPOS>MOLECULE
*****
 36 40 0 0 0
SMALL
GASTEIGER

@<TRIPOS>ATOM
      1 C          59.7749   88.3673    7.8246 C.2     1  UNL1        0.2320
      2 O          60.5995   89.1550    8.7991 O.2     1  UNL1       -0.2744
      3 N          60.0061   86.8938    7.6658 N.am    1  UNL1       -0.2639
      4 H          59.4649   86.3767    7.0262 H       1  UNL1        0.1567
      5 C          61.0617   86.2080    8.4813 C.ar    1  UNL1        0.1655
      6 N          61.0758   86.0782    9.9756 N.ar    1  UNL1       -0.2239
      7 C          62.3114   85.3216   10.3636 C.ar    1  UNL1        0.0913
      8 C          63.0611   84.9836    9.1091 C.ar    1  UNL1        0.0573
      9 S          62.2888   85.5315    7.9458 S.2     1  UNL1       -0.0508
     10 C          62.7249   84.9653   11.7608 C.ar    1  UNL1        0.0403
     11 C          63.0752   85.9344   12.8508 C.ar    1  UNL1        0.1021
     12 N          63.4274   85.1454   14.0770 N.ar    1  UNL1       -0.2269
     13 C          63.2948   83.6887   13.7448 C.ar    1  UNL1        0.1406
     14 N          63.5133   82.4492   14.5608 N.ar    1  UNL1       -0.3374
     15 C          63.2976   81.0985   13.9454 C.ar    1  UNL1        0.0735
     16 C          62.8634   80.9871   12.5139 C.ar    1  UNL1        0.0186
     17 C          62.6449   82.2266   11.6979 C.ar    1  UNL1        0.0046
     18 C          62.8606   83.5774   12.3133 C.ar    1  UNL1        0.0370
     19 H          63.7982   82.5223   15.5003 H       1  UNL1        0.1674
     20 C          58.7192   89.0531    7.0090 C.3     1  UNL1        0.1118
     21 C          60.9169   91.2447    4.5356 C.ar    1  UNL1        0.1383
     22 C          59.8841   92.1940    4.0043 C.ar    1  UNL1        0.0369
     23 C          58.4631   92.0962    4.4745 C.ar    1  UNL1        0.0028
     24 C          58.0747   91.0493    5.4760 C.ar    1  UNL1       -0.0036
     25 C          59.1075   90.1000    6.0074 C.ar    1  UNL1       -0.0101
     26 C          60.5286   90.1977    5.5373 C.ar    1  UNL1        0.0331
     27 O          62.3379   91.3424    4.0654 O.3     1  UNL1       -0.4740
     28 C          62.6405   91.8869    2.7008 C.3     1  UNL1        0.2226
     29 C          63.2648   93.2431    2.5560 C.3     1  UNL1        0.1201
     30 C          64.5371   95.3930   -2.8991 C.3     1  UNL1        0.0897
     31 N          64.2191   94.8556   -1.5353 N.3     1  UNL1       -0.2691
     32 C          62.9910   94.0200   -1.3261 C.3     1  UNL1        0.0897
     33 C          62.6730   93.4826    0.0376 C.3     1  UNL1        0.0898
     34 N          63.5829   93.7806    1.1922 N.3     1  UNL1       -0.2672
     35 C          64.8110   94.6161    0.9831 C.3     1  UNL1        0.0898
     36 C          65.1291   95.1536   -0.3807 C.3     1  UNL1        0.0897
@<TRIPOS>BOND
     1    30    31    1
     2    31    32    1
     3    32    33    1
     4    33    34    1
     5    34    29    1
     6    29    28    1
     7    28    27    1
     8    27    21    1
     9    21    22   ar
    10    22    23   ar
    11    23    24   ar
    12    24    25   ar
    13    25    20    1
    14    20     1    1
    15     1     2    2
    16     1     3   am
    17     3     5    1
    18     5     6   ar
    19     6     7   ar
    20     7    10    1
    21    10    11   ar
    22    11    12   ar
    23    12    13   ar
    24    13    14   ar
    25    14    15   ar
    26    15    16   ar
    27    16    17   ar
    28    17    18   ar
    29     7     8   ar
    30     8     9   ar
    31    25    26   ar
    32    34    35    1
    33    35    36    1
    34    36    31    1
    35    26    21   ar
    36     9     5   ar
    37    18    10   ar
    38    18    13    1
    39     3     4    1
    40    14    19    1
@<TRIPOS>MOLECULE
*****
 36 40 0 0 0
SMALL
GASTEIGER

@<TRIPOS>ATOM
      1 C          60.8766   88.3983   11.0508 C.2     1  UNL1        0.2320
      2 O          60.1238   89.6478   11.4001 O.2     1  UNL1       -0.2744
      3 N          62.2743   88.1986   11.5572 N.am    1  UNL1       -0.2639
      4 H          62.7684   87.3785   11.3279 H       1  UNL1        0.1567
      5 C          62.9192   89.2482   12.4129 C.ar    1  UNL1        0.1655
      6 N          63.9400   90.2498   11.9606 N.ar    1  UNL1       -0.2239
      7 C          64.3082   91.1012   13.1393 C.ar    1  UNL1        0.0913
      8 C          63.5150   90.6257   14.3203 C.ar    1  UNL1        0.0573
      9 S          62.6566   89.4805   13.8714 S.2     1  UNL1       -0.0508
     10 C          65.2962   92.2299   13.1375 C.ar    1  UNL1        0.0403
     11 C          65.4807   93.2383   12.0425 C.ar    1  UNL1        0.1021
     12 N          66.5717   94.1799   12.4587 N.ar    1  UNL1       -0.2269
     13 C          67.0614   93.7534   13.8108 C.ar    1  UNL1        0.1406
     14 N          68.1232   94.3068   14.7142 N.ar    1  UNL1       -0.3374
     15 C          68.3968   93.6550   16.0372 C.ar    1  UNL1        0.0735
     16 C          67.6085   92.4498   16.4567 C.ar    1  UNL1        0.0186
     17 C          66.5466   91.8964   15.5533 C.ar    1  UNL1        0.0046
     18 C          66.2731   92.5482   14.2304 C.ar    1  UNL1        0.0370
     19 H          68.6406   95.0979   14.4389 H       1  UNL1        0.1674
     20 C          60.2317   87.3487   10.1950 C.3     1  UNL1        0.1118
     21 C          62.9710   84.6087    9.3353 C.ar    1  UNL1        0.1383
     22 C          62.7831   84.4753    7.8531 C.ar    1  UNL1        0.0369
     23 C          61.7447   85.2996    7.1516 C.ar    1  UNL1        0.0028
     24 C          60.8943   86.2574    7.9321 C.ar    1  UNL1       -0.0036
     25 C          61.0822   86.3909    9.4144 C.ar    1  UNL1       -0.0101
     26 C          62.1206   85.5665   10.1160 C.ar    1  UNL1        0.0331
     27 O          64.0094   83.7843   10.0368 O.3     1  UNL1       -0.4740
     28 C          63.6010   82.8165   11.1077 C.3     1  UNL1        0.2226
     29 C          64.3709   82.7518   12.3934 C.3     1  UNL1        0.1201
     30 C          62.6349   86.0453   17.0986 C.3     1  UNL1        0.0897
     31 N          63.0690   85.2220   15.9223 N.3     1  UNL1       -0.2691
     32 C          62.2349   84.0594   15.4719 C.3     1  UNL1        0.0897
     33 C          62.6689   83.2361   14.2957 C.3     1  UNL1        0.0898
     34 N          63.9369   83.5752   13.5697 N.3     1  UNL1       -0.2672
     35 C          64.7710   84.7378   14.0200 C.3     1  UNL1        0.0898
     36 C          64.3370   85.5611   15.1964 C.3     1  UNL1        0.0897
@<TRIPOS>BOND
     1    30    31    1
     2    31    32    1
     3    32    33    1
     4    33    34    1
     5    34    29    1
     6    29    28    1
     7    28    27    1
     8    27    21    1
     9    21    22   ar
    10    22    23   ar
    11    23    24   ar
    12    24    25   ar
    13    25    20    1
    14    20     1    1
    15     1     2    2
    16     1     3   am
    17     3     5    1
    18     5     6   ar
    19     6     7   ar
    20     7    10    1
    21    10    11   ar
    22    11    12   ar
    23    12    13   ar
    24    13    14   ar
    25    14    15   ar
    26    15    16   ar
    27    16    17   ar
    28    17    18   ar
    29     7     8   ar
    30     8     9   ar
    31    25    26   ar
    32    34    35    1
    33    35    36    1
    34    36    31    1
    35    26    21   ar
    36     9     5   ar
    37    18    10   ar
    38    18    13    1
    39     3     4    1
    40    14    19    1
@<TRIPOS>MOLECULE
*****
 36 40 0 0 0
SMALL
GASTEIGER

@<TRIPOS>ATOM
      1 C          63.9473   89.2143   15.1491 C.2     1  UNL1        0.2320
      2 O          64.0332   88.7113   13.7386 O.2     1  UNL1       -0.2744
      3 N          63.6094   88.2686   16.2634 N.am    1  UNL1       -0.2639
      4 H          63.5531   88.5988   17.1891 H       1  UNL1        0.1567
      5 C          63.3575   86.8200   15.9671 C.ar    1  UNL1        0.1655
      6 N          63.8090   86.0787   14.7438 N.ar    1  UNL1       -0.2239
      7 C          63.3403   84.6588   14.8627 C.ar    1  UNL1        0.0913
      8 C          62.5991   84.5224   16.1597 C.ar    1  UNL1        0.0573
      9 S          62.6097   85.8581   16.8422 S.2     1  UNL1       -0.0508
     10 C          63.5721   83.5669   13.8608 C.ar    1  UNL1        0.0403
     11 C          64.6125   83.5681   12.7802 C.ar    1  UNL1        0.1021
     12 N          64.4876   82.2840   12.0151 N.ar    1  UNL1       -0.2269
     13 C          63.3699   81.4891   12.6227 C.ar    1  UNL1        0.1406
     14 N          62.7944   80.1459   12.2847 N.ar    1  UNL1       -0.3374
     15 C          61.6530   79.5955   13.0874 C.ar    1  UNL1        0.0735
     16 C          61.0872   80.3884   14.2281 C.ar    1  UNL1        0.0186
     17 C          61.6628   81.7317   14.5661 C.ar    1  UNL1        0.0046
     18 C          62.8042   82.2820   13.7634 C.ar    1  UNL1        0.0370
     19 H          63.1657   79.6255   11.5360 H       1  UNL1        0.1674
     20 C          64.1993   90.6630   15.4454 C.3     1  UNL1        0.1118
     21 C          64.9716   92.3293   11.9273 C.ar    1  UNL1        0.1383
     22 C          66.0365   93.3147   12.3080 C.ar    1  UNL1        0.0369
     23 C          66.4889   93.4163   13.7345 C.ar    1  UNL1        0.0028
     24 C          65.8766   92.5324   14.7803 C.ar    1  UNL1       -0.0036
     25 C          64.8117   91.5469   14.3997 C.ar    1  UNL1       -0.0101
     26 C          64.3592   91.4453   12.9731 C.ar    1  UNL1        0.0331
     27 O          64.5191   92.2278   10.5007 O.3     1  UNL1       -0.4740
     28 C          63.2399   91.5184   10.1684 C.3     1  UNL1        0.2226
     29 C          63.0281   90.1034   10.6190 C.3     1  UNL1        0.1201
     30 C          59.1066   86.5927    7.7389 C.3     1  UNL1        0.0897
     31 N          60.0869   87.4704    8.4589 N.3     1  UNL1       -0.2691
     32 C          61.2788   86.8637    9.1381 C.3     1  UNL1        0.0897
     33 C          62.2592   87.7413    9.8581 C.3     1  UNL1        0.0898
     34 N          62.0477   89.2258    9.8990 N.3     1  UNL1       -0.2672
     35 C          60.8559   89.8325    9.2198 C.3     1  UNL1        0.0898
     36 C          59.8755   88.9548    8.4997 C.3     1  UNL1        0.0897
@<TRIPOS>BOND
     1    30    31    1
     2    31    32    1
     3    32    33    1
     4    33    34    1
     5    34    29    1
     6    29    28    1
     7    28    27    1
     8    27    21    1
     9    21    22   ar
    10    22    23   ar
    11    23    24   ar
    12    24    25   ar
    13    25    20    1
    14    20     1    1
    15     1     2    2
    16     1     3   am
    17     3     5    1
    18     5     6   ar
    19     6     7   ar
    20     7    10    1
    21    10    11   ar
    22    11    12   ar
    23    12    13   ar
    24    13    14   ar
    25    14    15   ar
    26    15    16   ar
    27    16    17   ar
    28    17    18   ar
    29     7     8   ar
    30     8     9   ar
    31    25    26   ar
    32    34    35    1
    33    35    36    1
    34    36    31    1
    35    26    21   ar
    36     9     5   ar
    37    18    10   ar
    38    18    13    1
    39     3     4    1
    40    14    19    1
