@<TRIPOS>MOLECULE
*****
 27 30 0 0 0
SMALL
GASTEIGER

@<TRIPOS>ATOM
      1 C          61.4013   88.1125   10.8395 C.2     1  UNL1       -0.0246
      2 C          62.1651   86.8675   11.1810 C.2     1  UNL1       -0.0421
      3 C          61.9318   85.8663   10.0887 C.3     1  UNL1        0.0480
      4 C          61.0238   86.4925    9.0721 C.ar    1  UNL1       -0.0184
      5 C          60.4532   85.9780    7.7839 C.ar    1  UNL1       -0.0040
      6 C          59.5547   86.8517    6.9597 C.ar    1  UNL1       -0.0003
      7 C          59.2269   88.2399    7.4237 C.ar    1  UNL1       -0.0000
      8 C          59.7975   88.7545    8.7119 C.ar    1  UNL1       -0.0006
      9 C          60.6960   87.8808    9.5361 C.ar    1  UNL1       -0.0079
     10 C          60.0879   89.7503   12.3702 C.3     1  UNL1        0.0111
     11 C          61.3516   89.3688   11.6577 C.3     1  UNL1        0.0634
     12 C          62.5655   90.2435   11.7634 C.ar    1  UNL1        0.0818
     13 C          63.0615   90.9870   10.5587 C.ar    1  UNL1        0.1139
     14 N          64.2754   91.8618   10.6645 N.ar    1  UNL1       -0.2394
     15 C          64.9933   91.9931   11.9749 C.ar    1  UNL1        0.1195
     16 C          64.4974   91.2496   13.1797 C.ar    1  UNL1        0.1191
     17 N          63.2835   90.3749   13.0739 N.ar    1  UNL1       -0.2446
     18 C          63.0133   86.6602   12.4007 C.3     1  UNL1        0.0394
     19 C          63.2869   85.2713   12.8967 C.3     1  UNL1        0.0769
     20 N          64.0142   85.0673   14.1926 N.3     1  UNL1       -0.2648
     21 C          64.5477   86.2489   14.9472 C.3     1  UNL1        0.0900
     22 C          64.2082   83.6819   14.7338 C.3     1  UNL1        0.1377
     23 C          63.3416   82.5584   14.2471 C.ar    1  UNL1        0.1392
     24 C          63.7515   81.4807   13.2878 C.ar    1  UNL1        0.0376
     25 C          62.5762   80.5716   13.0821 C.ar    1  UNL1        0.0435
     26 C          61.4399   81.0875   13.9143 C.ar    1  UNL1        0.1792
     27 O          61.9130   82.3154   14.6343 O.2     1  UNL1       -0.4533
@<TRIPOS>BOND
     1    11    10    1
     2    11     1    1
     3     1     2    2
     4     2    18    1
     5    18    19    1
     6    19    20    1
     7    20    21    1
     8    20    22    1
     9    22    23    1
    10    23    24   ar
    11    24    25   ar
    12    25    26   ar
    13    26    27   ar
    14     2     3    1
    15     3     4    1
    16     4     5   ar
    17     5     6   ar
    18     6     7   ar
    19     7     8   ar
    20     8     9   ar
    21    11    12    1
    22    12    13   ar
    23    13    14   ar
    24    14    15   ar
    25    15    16   ar
    26    16    17   ar
    27     9     1    1
    28    17    12   ar
    29    27    23   ar
    30     9     4   ar
@<TRIPOS>MOLECULE
*****
 27 30 0 0 0
SMALL
GASTEIGER

@<TRIPOS>ATOM
      1 C          63.7237   89.1196   13.5486 C.2     1  UNL1       -0.0246
      2 C          63.9348   87.6471   13.7407 C.2     1  UNL1       -0.0421
      3 C          63.3155   86.9342   12.5752 C.3     1  UNL1        0.0480
      4 C          62.7218   87.9662   11.6628 C.ar    1  UNL1       -0.0184
      5 C          61.9840   87.8506   10.3620 C.ar    1  UNL1       -0.0040
      6 C          61.4985   89.0856    9.6627 C.ar    1  UNL1       -0.0003
      7 C          61.7508   90.4363   10.2644 C.ar    1  UNL1       -0.0000
      8 C          62.4885   90.5520   11.5652 C.ar    1  UNL1       -0.0006
      9 C          62.9740   89.3169   12.2644 C.ar    1  UNL1       -0.0079
     10 C          63.5958   90.3101   15.8544 C.3     1  UNL1        0.0111
     11 C          64.1819   90.2046   14.4776 C.3     1  UNL1        0.0634
     12 C          65.2260   91.1839   14.0300 C.ar    1  UNL1        0.0818
     13 C          66.6137   91.1113   14.5949 C.ar    1  UNL1        0.1139
     14 N          67.6579   92.0908   14.1472 N.ar    1  UNL1       -0.2394
     15 C          67.3145   93.1428   13.1347 C.ar    1  UNL1        0.1195
     16 C          65.9268   93.2154   12.5697 C.ar    1  UNL1        0.1191
     17 N          64.8826   92.2360   13.0174 N.ar    1  UNL1       -0.2446
     18 C          64.6410   87.0008   14.8954 C.3     1  UNL1        0.0394
     19 C          64.3163   85.5870   15.2770 C.3     1  UNL1        0.0769
     20 N          62.9999   85.2674   15.9211 N.3     1  UNL1       -0.2648
     21 C          62.5702   86.0042   17.1551 C.3     1  UNL1        0.0900
     22 C          62.1131   84.2111   15.3313 C.3     1  UNL1        0.1377
     23 C          62.6751   83.2180   14.3577 C.ar    1  UNL1        0.1392
     24 C          62.6760   83.3515   12.8637 C.ar    1  UNL1        0.0376
     25 C          63.3362   82.1330   12.2898 C.ar    1  UNL1        0.0435
     26 C          63.7433   81.2463   13.4291 C.ar    1  UNL1        0.1792
     27 O          63.3347   81.9169   14.7072 O.2     1  UNL1       -0.4533
@<TRIPOS>BOND
     1    11    10    1
     2    11     1    1
     3     1     2    2
     4     2    18    1
     5    18    19    1
     6    19    20    1
     7    20    21    1
     8    20    22    1
     9    22    23    1
    10    23    24   ar
    11    24    25   ar
    12    25    26   ar
    13    26    27   ar
    14     2     3    1
    15     3     4    1
    16     4     5   ar
    17     5     6   ar
    18     6     7   ar
    19     7     8   ar
    20     8     9   ar
    21    11    12    1
    22    12    13   ar
    23    13    14   ar
    24    14    15   ar
    25    15    16   ar
    26    16    17   ar
    27     9     1    1
    28    17    12   ar
    29    27    23   ar
    30     9     4   ar
@<TRIPOS>MOLECULE
*****
 27 30 0 0 0
SMALL
GASTEIGER

@<TRIPOS>ATOM
      1 C          62.9412   85.3975   11.9440 C.2     1  UNL1       -0.0246
      2 C          63.4985   86.1144   13.1379 C.2     1  UNL1       -0.0421
      3 C          63.8565   85.0868   14.1702 C.3     1  UNL1        0.0480
      4 C          63.5205   83.7347   13.6143 C.ar    1  UNL1       -0.0184
      5 C          63.6565   82.3535   14.1833 C.ar    1  UNL1       -0.0040
      6 C          63.2269   81.1643   13.3763 C.ar    1  UNL1       -0.0003
      7 C          62.6611   81.3563   12.0004 C.ar    1  UNL1       -0.0000
      8 C          62.5251   82.7375   11.4315 C.ar    1  UNL1       -0.0006
      9 C          62.9548   83.9267   12.2384 C.ar    1  UNL1       -0.0079
     10 C          62.6973   85.3692    9.3575 C.3     1  UNL1        0.0111
     11 C          62.4555   86.0387   10.6779 C.3     1  UNL1        0.0634
     12 C          61.7281   87.3493   10.7321 C.ar    1  UNL1        0.0818
     13 C          62.2675   88.5377    9.9928 C.ar    1  UNL1        0.1139
     14 N          61.5400   89.8483   10.0470 N.ar    1  UNL1       -0.2394
     15 C          60.2730   89.9706   10.8405 C.ar    1  UNL1        0.1195
     16 C          59.7334   88.7822   11.5798 C.ar    1  UNL1        0.1191
     17 N          60.4610   87.4716   11.5256 N.ar    1  UNL1       -0.2446
     18 C          63.6680   87.5985   13.2753 C.3     1  UNL1        0.0394
     19 C          64.2882   88.1709   14.5153 C.3     1  UNL1        0.0769
     20 N          63.6578   89.3513   15.1929 N.3     1  UNL1       -0.2648
     21 C          63.1437   89.2241   16.5964 C.3     1  UNL1        0.0900
     22 C          63.5416   90.6589   14.4672 C.3     1  UNL1        0.1377
     23 C          64.7762   91.3625   13.9870 C.ar    1  UNL1        0.1392
     24 C          66.1458   91.2493   14.5883 C.ar    1  UNL1        0.0376
     25 C          67.0741   92.1197   13.7942 C.ar    1  UNL1        0.0435
     26 C          66.2782   92.7709   12.7021 C.ar    1  UNL1        0.1792
     27 O          64.8581   92.3029   12.8213 O.2     1  UNL1       -0.4533
@<TRIPOS>BOND
     1    11    10    1
     2    11     1    1
     3     1     2    2
     4     2    18    1
     5    18    19    1
     6    19    20    1
     7    20    21    1
     8    20    22    1
     9    22    23    1
    10    23    24   ar
    11    24    25   ar
    12    25    26   ar
    13    26    27   ar
    14     2     3    1
    15     3     4    1
    16     4     5   ar
    17     5     6   ar
    18     6     7   ar
    19     7     8   ar
    20     8     9   ar
    21    11    12    1
    22    12    13   ar
    23    13    14   ar
    24    14    15   ar
    25    15    16   ar
    26    16    17   ar
    27     9     1    1
    28    17    12   ar
    29    27    23   ar
    30     9     4   ar
@<TRIPOS>MOLECULE
*****
 27 30 0 0 0
SMALL
GASTEIGER

@<TRIPOS>ATOM
      1 C          63.1695   88.5297   12.2310 C.2     1  UNL1       -0.0246
      2 C          63.7918   89.3819   13.2971 C.2     1  UNL1       -0.0421
      3 C          64.2750   88.4764   14.3910 C.3     1  UNL1        0.0480
      4 C          63.9514   87.0646   14.0010 C.ar    1  UNL1       -0.0184
      5 C          64.1907   85.7534   14.6890 C.ar    1  UNL1       -0.0040
      6 C          63.7467   84.4750   14.0420 C.ar    1  UNL1       -0.0003
      7 C          63.0635   84.5079   12.7070 C.ar    1  UNL1       -0.0000
      8 C          62.8242   85.8192   12.0191 C.ar    1  UNL1       -0.0006
      9 C          63.2682   87.0975   12.6660 C.ar    1  UNL1       -0.0079
     10 C          62.7525   90.4482   10.5294 C.3     1  UNL1        0.0111
     11 C          62.5563   89.0229   10.9541 C.3     1  UNL1        0.0634
     12 C          61.7469   88.0911   10.1018 C.ar    1  UNL1        0.0818
     13 C          60.2493   88.1762   10.1110 C.ar    1  UNL1        0.1139
     14 N          59.4399   87.2444    9.2586 N.ar    1  UNL1       -0.2394
     15 C          60.1280   86.2274    8.3971 C.ar    1  UNL1        0.1195
     16 C          61.6256   86.1422    8.3879 C.ar    1  UNL1        0.1191
     17 N          62.4350   87.0741    9.2402 N.ar    1  UNL1       -0.2446
     18 C          63.9100   90.8770   13.2734 C.3     1  UNL1        0.0394
     19 C          65.1745   91.5368   13.7377 C.3     1  UNL1        0.0769
     20 N          65.7038   92.7382   13.0119 N.3     1  UNL1       -0.2648
     21 C          66.5242   93.7568   13.7463 C.3     1  UNL1        0.0900
     22 C          65.4127   92.9208   11.5519 C.3     1  UNL1        0.1377
     23 C          66.5410   93.0786   10.5761 C.ar    1  UNL1        0.1392
     24 C          67.6920   92.1333   10.3989 C.ar    1  UNL1        0.0376
     25 C          68.5788   92.6798    9.3195 C.ar    1  UNL1        0.0435
     26 C          67.9758   93.9630    8.8297 C.ar    1  UNL1        0.1792
     27 O          66.7163   94.2094    9.6063 O.2     1  UNL1       -0.4533
@<TRIPOS>BOND
     1    11    10    1
     2    11     1    1
     3     1     2    2
     4     2    18    1
     5    18    19    1
     6    19    20    1
     7    20    21    1
     8    20    22    1
     9    22    23    1
    10    23    24   ar
    11    24    25   ar
    12    25    26   ar
    13    26    27   ar
    14     2     3    1
    15     3     4    1
    16     4     5   ar
    17     5     6   ar
    18     6     7   ar
    19     7     8   ar
    20     8     9   ar
    21    11    12    1
    22    12    13   ar
    23    13    14   ar
    24    14    15   ar
    25    15    16   ar
    26    16    17   ar
    27     9     1    1
    28    17    12   ar
    29    27    23   ar
    30     9     4   ar
@<TRIPOS>MOLECULE
*****
 27 30 0 0 0
SMALL
GASTEIGER

@<TRIPOS>ATOM
      1 C          63.4886   87.0881   13.0606 C.2     1  UNL1       -0.0246
      2 C          63.6895   88.5622   13.2524 C.2     1  UNL1       -0.0421
      3 C          63.0500   89.2714   12.0956 C.3     1  UNL1        0.0480
      4 C          62.4540   88.2358   11.1889 C.ar    1  UNL1       -0.0184
      5 C          61.6994   88.3471    9.8973 C.ar    1  UNL1       -0.0040
      6 C          61.2159   87.1090    9.2021 C.ar    1  UNL1       -0.0003
      7 C          61.4870   85.7596    9.7985 C.ar    1  UNL1       -0.0000
      8 C          62.2415   85.6483   11.0901 C.ar    1  UNL1       -0.0006
      9 C          62.7250   86.8864   11.7853 C.ar    1  UNL1       -0.0079
     10 C          64.7556   86.3592   15.2085 C.3     1  UNL1        0.0111
     11 C          63.9672   86.0058   13.9823 C.3     1  UNL1        0.0634
     12 C          63.6575   84.5701   13.6778 C.ar    1  UNL1        0.0818
     13 C          62.4975   83.8947   14.3475 C.ar    1  UNL1        0.1139
     14 N          62.1879   82.4590   14.0430 N.ar    1  UNL1       -0.2394
     15 C          63.0380   81.6986   13.0689 C.ar    1  UNL1        0.1195
     16 C          64.1980   82.3739   12.3992 C.ar    1  UNL1        0.1191
     17 N          64.5077   83.8096   12.7037 N.ar    1  UNL1       -0.2446
     18 C          64.4042   89.2128   14.3995 C.3     1  UNL1        0.0394
     19 C          63.9990   90.5830   14.8556 C.3     1  UNL1        0.0769
     20 N          65.0466   91.5899   15.2281 N.3     1  UNL1       -0.2648
     21 C          64.9182   92.3689   16.5035 C.3     1  UNL1        0.0900
     22 C          66.2225   91.8177   14.3252 C.3     1  UNL1        0.1377
     23 C          66.0672   92.6502   13.0871 C.ar    1  UNL1        0.1392
     24 C          65.3113   92.2603   11.8516 C.ar    1  UNL1        0.0376
     25 C          65.4175   93.3879   10.8680 C.ar    1  UNL1        0.0435
     26 C          66.2391   94.4746   11.4956 C.ar    1  UNL1        0.1792
     27 O          66.6406   94.0187   12.8671 O.2     1  UNL1       -0.4533
@<TRIPOS>BOND
     1    11    10    1
     2    11     1    1
     3     1     2    2
     4     2    18    1
     5    18    19    1
     6    19    20    1
     7    20    21    1
     8    20    22    1
     9    22    23    1
    10    23    24   ar
    11    24    25   ar
    12    25    26   ar
    13    26    27   ar
    14     2     3    1
    15     3     4    1
    16     4     5   ar
    17     5     6   ar
    18     6     7   ar
    19     7     8   ar
    20     8     9   ar
    21    11    12    1
    22    12    13   ar
    23    13    14   ar
    24    14    15   ar
    25    15    16   ar
    26    16    17   ar
    27     9     1    1
    28    17    12   ar
    29    27    23   ar
    30     9     4   ar
@<TRIPOS>MOLECULE
*****
 27 30 0 0 0
SMALL
GASTEIGER

@<TRIPOS>ATOM
      1 C          63.3565   87.5161   12.8099 C.2     1  UNL1       -0.0246
      2 C          63.5226   89.0054   12.7429 C.2     1  UNL1       -0.0421
      3 C          62.8349   89.4930   11.5022 C.3     1  UNL1        0.0480
      4 C          62.2438   88.3051   10.8025 C.ar    1  UNL1       -0.0184
      5 C          61.4537   88.1782    9.5338 C.ar    1  UNL1       -0.0040
      6 C          60.9859   86.8295    9.0734 C.ar    1  UNL1       -0.0003
      7 C          61.3083   85.6076    9.8816 C.ar    1  UNL1       -0.0000
      8 C          62.0984   85.7346   11.1503 C.ar    1  UNL1       -0.0006
      9 C          62.5662   87.0833   11.6107 C.ar    1  UNL1       -0.0079
     10 C          64.7085   87.1898   15.0044 C.3     1  UNL1        0.0111
     11 C          63.8875   86.6173   13.8871 C.3     1  UNL1        0.0634
     12 C          63.5975   85.1463   13.8471 C.ar    1  UNL1        0.0818
     13 C          64.5288   84.2176   13.1258 C.ar    1  UNL1        0.1139
     14 N          64.2388   82.7464   13.0858 N.ar    1  UNL1       -0.2394
     15 C          63.0175   82.2039   13.7670 C.ar    1  UNL1        0.1195
     16 C          62.0862   83.1325   14.4883 C.ar    1  UNL1        0.1191
     17 N          62.3762   84.6037   14.5283 N.ar    1  UNL1       -0.2446
     18 C          64.2488   89.8574   13.7412 C.3     1  UNL1        0.0394
     19 C          64.3186   91.3433   13.5491 C.3     1  UNL1        0.0769
     20 N          65.4502   91.9467   12.7708 N.3     1  UNL1       -0.2648
     21 C          66.7923   92.1267   13.4162 C.3     1  UNL1        0.0900
     22 C          65.2396   92.3700   11.3473 C.3     1  UNL1        0.1377
     23 C          66.4016   92.8459   10.5267 C.ar    1  UNL1        0.1392
     24 C          66.6127   94.2436   10.0247 C.ar    1  UNL1        0.0376
     25 C          67.8980   94.2693    9.2517 C.ar    1  UNL1        0.0435
     26 C          68.4812   92.8876    9.2761 C.ar    1  UNL1        0.1792
     27 O          67.5564   92.0079   10.0641 O.2     1  UNL1       -0.4533
@<TRIPOS>BOND
     1    11    10    1
     2    11     1    1
     3     1     2    2
     4     2    18    1
     5    18    19    1
     6    19    20    1
     7    20    21    1
     8    20    22    1
     9    22    23    1
    10    23    24   ar
    11    24    25   ar
    12    25    26   ar
    13    26    27   ar
    14     2     3    1
    15     3     4    1
    16     4     5   ar
    17     5     6   ar
    18     6     7   ar
    19     7     8   ar
    20     8     9   ar
    21    11    12    1
    22    12    13   ar
    23    13    14   ar
    24    14    15   ar
    25    15    16   ar
    26    16    17   ar
    27     9     1    1
    28    17    12   ar
    29    27    23   ar
    30     9     4   ar
@<TRIPOS>MOLECULE
*****
 27 30 0 0 0
SMALL
GASTEIGER

@<TRIPOS>ATOM
      1 C          63.3902   87.0531   12.8602 C.2     1  UNL1       -0.0246
      2 C          63.5380   88.5405   12.9854 C.2     1  UNL1       -0.0421
      3 C          62.8606   89.1744   11.8067 C.3     1  UNL1        0.0480
      4 C          62.2942   88.0787   10.9531 C.ar    1  UNL1       -0.0184
      5 C          61.5226   88.1055    9.6670 C.ar    1  UNL1       -0.0040
      6 C          61.0784   86.8212    9.0321 C.ar    1  UNL1       -0.0003
      7 C          61.4057   85.5101    9.6833 C.ar    1  UNL1       -0.0000
      8 C          62.1772   85.4833   10.9693 C.ar    1  UNL1       -0.0006
      9 C          62.6215   86.7676   11.6042 C.ar    1  UNL1       -0.0079
     10 C          64.7203   86.4649   15.0132 C.3     1  UNL1        0.0111
     11 C          63.9184   86.0305   13.8222 C.3     1  UNL1        0.0634
     12 C          63.6447   84.5736   13.5934 C.ar    1  UNL1        0.0818
     13 C          62.5053   83.9040   14.3028 C.ar    1  UNL1        0.1139
     14 N          62.2317   82.4470   14.0739 N.ar    1  UNL1       -0.2394
     15 C          63.0975   81.6596   13.1356 C.ar    1  UNL1        0.1195
     16 C          64.2369   82.3292   12.4261 C.ar    1  UNL1        0.1191
     17 N          64.5105   83.7862   12.6550 N.ar    1  UNL1       -0.2446
     18 C          64.2400   89.2666   14.0945 C.3     1  UNL1        0.0394
     19 C          63.8976   90.6969   14.3892 C.3     1  UNL1        0.0769
     20 N          64.7677   91.8000   13.8638 N.3     1  UNL1       -0.2648
     21 C          64.9926   91.9392   12.3873 C.3     1  UNL1        0.0900
     22 C          65.4129   92.7639   14.8149 C.3     1  UNL1        0.1377
     23 C          66.8902   92.6950   15.0654 C.ar    1  UNL1        0.1392
     24 C          67.5485   92.3415   16.3661 C.ar    1  UNL1        0.0376
     25 C          69.0338   92.3955   16.1637 C.ar    1  UNL1        0.0435
     26 C          69.2935   92.7824   14.7379 C.ar    1  UNL1        0.1792
     27 O          67.9688   92.9674   14.0592 O.2     1  UNL1       -0.4533
@<TRIPOS>BOND
     1    11    10    1
     2    11     1    1
     3     1     2    2
     4     2    18    1
     5    18    19    1
     6    19    20    1
     7    20    21    1
     8    20    22    1
     9    22    23    1
    10    23    24   ar
    11    24    25   ar
    12    25    26   ar
    13    26    27   ar
    14     2     3    1
    15     3     4    1
    16     4     5   ar
    17     5     6   ar
    18     6     7   ar
    19     7     8   ar
    20     8     9   ar
    21    11    12    1
    22    12    13   ar
    23    13    14   ar
    24    14    15   ar
    25    15    16   ar
    26    16    17   ar
    27     9     1    1
    28    17    12   ar
    29    27    23   ar
    30     9     4   ar
@<TRIPOS>MOLECULE
*****
 27 30 0 0 0
SMALL
GASTEIGER

@<TRIPOS>ATOM
      1 C          63.6462   86.9635   13.3954 C.2     1  UNL1       -0.0246
      2 C          62.9902   86.8631   12.0501 C.2     1  UNL1       -0.0421
      3 C          62.8669   88.2491   11.4900 C.3     1  UNL1        0.0480
      4 C          63.4466   89.2061   12.4890 C.ar    1  UNL1       -0.0184
      5 C          63.5981   90.6984   12.4786 C.ar    1  UNL1       -0.0040
      6 C          64.2313   91.3961   13.6457 C.ar    1  UNL1       -0.0003
      7 C          64.7129   90.6016   14.8233 C.ar    1  UNL1       -0.0000
      8 C          64.5614   89.1093   14.8337 C.ar    1  UNL1       -0.0006
      9 C          63.9282   88.4116   13.6666 C.ar    1  UNL1       -0.0079
     10 C          64.5541   86.0787   15.6632 C.3     1  UNL1        0.0111
     11 C          63.9643   85.8172   14.3090 C.3     1  UNL1        0.0634
     12 C          63.6926   84.4093   13.8685 C.ar    1  UNL1        0.0818
     13 C          62.4897   83.6796   14.3886 C.ar    1  UNL1        0.1139
     14 N          62.2181   82.2717   13.9481 N.ar    1  UNL1       -0.2394
     15 C          63.1493   81.5935   12.9875 C.ar    1  UNL1        0.1195
     16 C          64.3523   82.3232   12.4673 C.ar    1  UNL1        0.1191
     17 N          64.6239   83.7311   12.9079 N.ar    1  UNL1       -0.2446
     18 C          62.5372   85.5986   11.3823 C.3     1  UNL1        0.0394
     19 C          61.2208   85.5598   10.6643 C.3     1  UNL1        0.0769
     20 N          61.0830   86.2016    9.3155 N.3     1  UNL1       -0.2648
     21 C          61.9781   85.7785    8.1886 C.3     1  UNL1        0.0900
     22 C          60.0500   87.2663    9.0936 C.3     1  UNL1        0.1377
     23 C          59.9097   88.3914   10.0757 C.ar    1  UNL1        0.1392
     24 C          60.1724   89.8419    9.7983 C.ar    1  UNL1        0.0376
     25 C          59.9070   90.6105   11.0588 C.ar    1  UNL1        0.0435
     26 C          59.4803   89.6350   12.1153 C.ar    1  UNL1        0.1792
     27 O          59.4819   88.2635   11.5078 O.2     1  UNL1       -0.4533
@<TRIPOS>BOND
     1    11    10    1
     2    11     1    1
     3     1     2    2
     4     2    18    1
     5    18    19    1
     6    19    20    1
     7    20    21    1
     8    20    22    1
     9    22    23    1
    10    23    24   ar
    11    24    25   ar
    12    25    26   ar
    13    26    27   ar
    14     2     3    1
    15     3     4    1
    16     4     5   ar
    17     5     6   ar
    18     6     7   ar
    19     7     8   ar
    20     8     9   ar
    21    11    12    1
    22    12    13   ar
    23    13    14   ar
    24    14    15   ar
    25    15    16   ar
    26    16    17   ar
    27     9     1    1
    28    17    12   ar
    29    27    23   ar
    30     9     4   ar
@<TRIPOS>MOLECULE
*****
 27 30 0 0 0
SMALL
GASTEIGER

@<TRIPOS>ATOM
      1 C          62.2670   86.3857   10.9330 C.2     1  UNL1       -0.0246
      2 C          62.3386   86.0230    9.4793 C.2     1  UNL1       -0.0421
      3 C          62.9883   84.6755    9.3692 C.3     1  UNL1        0.0480
      4 C          63.3184   84.2055   10.7549 C.ar    1  UNL1       -0.0184
      5 C          63.9672   82.9515   11.2615 C.ar    1  UNL1       -0.0040
      6 C          64.1703   82.7546   12.7345 C.ar    1  UNL1       -0.0003
      7 C          63.7245   83.8116   13.7010 C.ar    1  UNL1       -0.0000
      8 C          63.0756   85.0655   13.1944 C.ar    1  UNL1       -0.0006
      9 C          62.8726   85.2624   11.7214 C.ar    1  UNL1       -0.0079
     10 C          60.2036   87.8338   11.5622 C.3     1  UNL1        0.0111
     11 C          61.6911   87.6498   11.4990 C.3     1  UNL1        0.0634
     12 C          62.6023   88.7299   12.0018 C.ar    1  UNL1        0.0818
     13 C          62.7470   90.0083   11.2307 C.ar    1  UNL1        0.1139
     14 N          63.6584   91.0884   11.7336 N.ar    1  UNL1       -0.2394
     15 C          64.4249   90.8901   13.0076 C.ar    1  UNL1        0.1195
     16 C          64.2803   89.6117   13.7787 C.ar    1  UNL1        0.1191
     17 N          63.3690   88.5316   13.2758 N.ar    1  UNL1       -0.2446
     18 C          61.8467   86.8607    8.3363 C.3     1  UNL1        0.0394
     19 C          60.3752   87.0816    8.1472 C.3     1  UNL1        0.0769
     20 N          59.8465   88.4688    7.9327 N.3     1  UNL1       -0.2648
     21 C          60.3064   89.5915    8.8149 C.3     1  UNL1        0.0900
     22 C          58.8580   88.7335    6.8360 C.3     1  UNL1        0.1377
     23 C          59.0052   89.9501    5.9710 C.ar    1  UNL1        0.1392
     24 C          57.8967   90.8625    5.5367 C.ar    1  UNL1        0.0376
     25 C          58.4932   91.9442    4.6857 C.ar    1  UNL1        0.0435
     26 C          59.9704   91.7003    4.5941 C.ar    1  UNL1        0.1792
     27 O          60.2868   90.4679    5.3885 O.2     1  UNL1       -0.4533
@<TRIPOS>BOND
     1    11    10    1
     2    11     1    1
     3     1     2    2
     4     2    18    1
     5    18    19    1
     6    19    20    1
     7    20    21    1
     8    20    22    1
     9    22    23    1
    10    23    24   ar
    11    24    25   ar
    12    25    26   ar
    13    26    27   ar
    14     2     3    1
    15     3     4    1
    16     4     5   ar
    17     5     6   ar
    18     6     7   ar
    19     7     8   ar
    20     8     9   ar
    21    11    12    1
    22    12    13   ar
    23    13    14   ar
    24    14    15   ar
    25    15    16   ar
    26    16    17   ar
    27     9     1    1
    28    17    12   ar
    29    27    23   ar
    30     9     4   ar
