@<TRIPOS>MOLECULE
*****
 44 49 0 0 0
SMALL
GASTEIGER

@<TRIPOS>ATOM
      1 N          59.2656   90.6051    5.7630 N.ar    1  UNL1       -0.2823
      2 C          57.8762   91.1332    5.5612 C.ar    1  UNL1        0.1831
      3 N          57.9016   92.0685    4.3888 N.ar    1  UNL1       -0.2236
      4 C          59.3066   92.1185    3.8660 C.ar    1  UNL1        0.0991
      5 C          59.9273   92.8708    2.7264 C.ar    1  UNL1        0.0207
      6 C          61.3910   92.7186    2.4360 C.ar    1  UNL1        0.0031
      7 C          62.2340   91.8142    3.2853 C.ar    1  UNL1        0.0016
      8 C          61.6134   91.0619    4.4249 C.ar    1  UNL1        0.0191
      9 C          60.1497   91.2141    4.7153 C.ar    1  UNL1        0.0835
     10 C          62.0117   93.4709    1.2963 C.ar    1  UNL1        0.0193
     11 C          63.5044   93.5729    1.1895 C.ar    1  UNL1        0.0044
     12 C          64.1252   94.3251    0.0499 C.ar    1  UNL1        0.0341
     13 C          63.2532   94.9754   -0.9830 C.ar    1  UNL1        0.1285
     14 N          61.7605   94.8734   -0.8763 N.ar    1  UNL1       -0.2294
     15 C          61.1398   94.1211    0.2634 C.ar    1  UNL1        0.1003
     16 N          63.8739   95.7276   -2.1227 N.pl3   1  UNL1       -0.3196
     17 H          64.0111   96.7001   -2.0540 H       1  UNL1        0.1481
     18 C          64.2858   94.9982   -3.3670 C.3     1  UNL1        0.0731
     19 C          64.9914   95.7327   -4.4681 C.3     1  UNL1        0.0369
     20 C          65.4033   95.0033   -5.7124 C.3     1  UNL1        0.0738
     21 N          65.1095   93.5393   -5.8556 N.3     1  UNL1       -0.2714
     22 C          65.5213   92.8099   -7.0999 C.3     1  UNL1        0.0896
     23 C          64.4038   92.8048   -4.7545 C.3     1  UNL1        0.0738
     24 C          63.9920   93.5343   -3.5102 C.3     1  UNL1        0.0369
     25 C          60.4818   88.7208    8.9310 C.ar    1  UNL1        0.1512
     26 C          60.1498   89.9938    8.2103 C.ar    1  UNL1        0.0619
     27 C          59.6956   89.6379    6.8258 C.ar    1  UNL1        0.0987
     28 S          59.7467   88.1449    6.6907 S.2     1  UNL1       -0.0618
     29 C          60.2326   87.5781    7.9917 C.ar    1  UNL1        0.1178
     30 C          60.4339   86.1238    8.2995 C.2     1  UNL1        0.2518
     31 N          60.9351   85.7054    9.6499 N.am    1  UNL1       -0.3248
     32 O          60.1341   85.0880    7.2568 O.2     1  UNL1       -0.2697
     33 H          61.1319   86.3852   10.3343 H       1  UNL1        0.1453
     34 H          61.0672   84.7509    9.8519 H       1  UNL1        0.1453
     35 O          60.9760   88.6100   10.3428 O.3     1  UNL1       -0.4740
     36 C          59.8297   90.3424   11.9030 C.3     1  UNL1        0.0523
     37 C          61.0571   89.8331   11.2072 C.3     1  UNL1        0.1891
     38 C          62.3655   90.5469   11.3759 C.ar    1  UNL1        0.0278
     39 C          62.9753   91.2790   10.2174 C.ar    1  UNL1        0.0000
     40 C          64.2838   91.9928   10.3860 C.ar    1  UNL1       -0.0002
     41 C          64.9824   91.9745   11.7133 C.ar    1  UNL1        0.0008
     42 C          64.3727   91.2424   12.8717 C.ar    1  UNL1        0.0112
     43 C          63.0642   90.5286   12.7031 C.ar    1  UNL1        0.0570
     44 CL         62.4544   89.7966   13.8616 Cl      1  UNL1       -0.0825
@<TRIPOS>BOND
     1    37    36    1
     2    37    35    1
     3    35    25    1
     4    25    26   ar
     5    26    27   ar
     6    27     1    1
     7     1     2   ar
     8     2     3   ar
     9     3     4   ar
    10     4     5   ar
    11     5     6   ar
    12     6    10    1
    13    10    11   ar
    14    11    12   ar
    15    12    13   ar
    16    13    16    1
    17    16    18    1
    18    18    19    1
    19    19    20    1
    20    20    21    1
    21    21    22    1
    22    21    23    1
    23    23    24    1
    24    13    14   ar
    25    14    15   ar
    26     6     7   ar
    27     7     8   ar
    28     8     9   ar
    29    27    28   ar
    30    28    29   ar
    31    29    30    1
    32    30    31   am
    33    30    32    2
    34    37    38    1
    35    38    39   ar
    36    39    40   ar
    37    40    41   ar
    38    41    42   ar
    39    42    43   ar
    40    43    44    1
    41    29    25   ar
    42    43    38   ar
    43     9     1   ar
    44     9     4   ar
    45    15    10   ar
    46    24    18    1
    47    16    17    1
    48    31    33    1
    49    31    34    1
@<TRIPOS>MOLECULE
*****
 44 49 0 0 0
SMALL
GASTEIGER

@<TRIPOS>ATOM
      1 N          59.1643   90.2206    6.2636 N.ar    1  UNL1       -0.2823
      2 C          57.7284   90.5647    5.9995 C.ar    1  UNL1        0.1831
      3 N          57.6770   91.4315    4.7764 N.ar    1  UNL1       -0.2236
      4 C          59.0811   91.6231    4.2846 C.ar    1  UNL1        0.0991
      5 C          59.6413   92.3824    3.1186 C.ar    1  UNL1        0.0207
      6 C          61.1208   92.3932    2.8718 C.ar    1  UNL1        0.0031
      7 C          62.0400   91.6448    3.7910 C.ar    1  UNL1        0.0016
      8 C          61.4798   90.8856    4.9570 C.ar    1  UNL1        0.0191
      9 C          60.0003   90.8747    5.2038 C.ar    1  UNL1        0.0835
     10 C          61.6811   93.1525    1.7057 C.ar    1  UNL1        0.0193
     11 C          63.1418   93.4911    1.6633 C.ar    1  UNL1        0.0044
     12 C          63.7021   94.2503    0.4973 C.ar    1  UNL1        0.0341
     13 C          62.8018   94.6710   -0.6263 C.ar    1  UNL1        0.1285
     14 N          61.3411   94.3325   -0.5838 N.ar    1  UNL1       -0.2294
     15 C          60.7808   93.5732    0.5822 C.ar    1  UNL1        0.1003
     16 N          63.3621   95.4303   -1.7922 N.pl3   1  UNL1       -0.3196
     17 H          63.4016   96.4136   -1.7662 H       1  UNL1        0.1481
     18 C          63.8623   94.6913   -2.9979 C.3     1  UNL1        0.0731
     19 C          63.6911   93.2040   -3.0904 C.3     1  UNL1        0.0369
     20 C          64.1914   92.4650   -4.2961 C.3     1  UNL1        0.0738
     21 N          64.8628   93.2133   -5.4093 N.3     1  UNL1       -0.2714
     22 C          65.3631   92.4743   -6.6149 C.3     1  UNL1        0.0896
     23 C          65.0340   94.7006   -5.3167 C.3     1  UNL1        0.0738
     24 C          64.5338   95.4396   -4.1111 C.3     1  UNL1        0.0369
     25 C          60.3613   87.4502    8.7045 C.ar    1  UNL1        0.1512
     26 C          59.8149   87.8781    7.3747 C.ar    1  UNL1        0.0619
     27 C          59.6747   89.3714    7.3899 C.ar    1  UNL1        0.0987
     28 S          60.1343   89.8666    8.7291 S.2     1  UNL1       -0.0618
     29 C          60.5587   88.6792    9.5416 C.ar    1  UNL1        0.1178
     30 C          61.0877   88.7147   10.9449 C.2     1  UNL1        0.2518
     31 N          62.5470   88.9597   11.1904 N.am    1  UNL1       -0.3248
     32 O          60.1572   88.5051   12.1026 O.2     1  UNL1       -0.2697
     33 H          63.1577   89.0972   10.4305 H       1  UNL1        0.1453
     34 H          62.8941   88.9829   12.1113 H       1  UNL1        0.1453
     35 O          60.6581   86.0410    9.1237 O.3     1  UNL1       -0.4740
     36 C          63.0494   85.7292    8.1569 C.3     1  UNL1        0.0523
     37 C          62.0794   85.5924    9.2929 C.3     1  UNL1        0.1891
     38 C          62.5308   85.0071   10.5981 C.ar    1  UNL1        0.0278
     39 C          62.0319   85.5823   11.8905 C.ar    1  UNL1        0.0000
     40 C          62.4832   84.9969   13.1958 C.ar    1  UNL1       -0.0002
     41 C          63.4334   83.8363   13.2086 C.ar    1  UNL1        0.0008
     42 C          63.9323   83.2612   11.9163 C.ar    1  UNL1        0.0112
     43 C          63.4810   83.8465   10.6110 C.ar    1  UNL1        0.0570
     44 CL         63.9799   83.2713    9.3187 Cl      1  UNL1       -0.0825
@<TRIPOS>BOND
     1    37    36    1
     2    37    35    1
     3    35    25    1
     4    25    26   ar
     5    26    27   ar
     6    27     1    1
     7     1     2   ar
     8     2     3   ar
     9     3     4   ar
    10     4     5   ar
    11     5     6   ar
    12     6    10    1
    13    10    11   ar
    14    11    12   ar
    15    12    13   ar
    16    13    16    1
    17    16    18    1
    18    18    19    1
    19    19    20    1
    20    20    21    1
    21    21    22    1
    22    21    23    1
    23    23    24    1
    24    13    14   ar
    25    14    15   ar
    26     6     7   ar
    27     7     8   ar
    28     8     9   ar
    29    27    28   ar
    30    28    29   ar
    31    29    30    1
    32    30    31   am
    33    30    32    2
    34    37    38    1
    35    38    39   ar
    36    39    40   ar
    37    40    41   ar
    38    41    42   ar
    39    42    43   ar
    40    43    44    1
    41    29    25   ar
    42    43    38   ar
    43     9     1   ar
    44     9     4   ar
    45    15    10   ar
    46    24    18    1
    47    16    17    1
    48    31    33    1
    49    31    34    1
@<TRIPOS>MOLECULE
*****
 44 49 0 0 0
SMALL
GASTEIGER

@<TRIPOS>ATOM
      1 N          59.1642   90.2264    6.2066 N.ar    1  UNL1       -0.2823
      2 C          57.6926   90.4951    6.0954 C.ar    1  UNL1        0.1831
      3 N          57.4746   91.4016    4.9203 N.ar    1  UNL1       -0.2236
      4 C          58.8113   91.6931    4.3054 C.ar    1  UNL1        0.0991
      5 C          59.2125   92.5261    3.1242 C.ar    1  UNL1        0.0207
      6 C          60.6580   92.6327    2.7381 C.ar    1  UNL1        0.0031
      7 C          61.7023   91.9064    3.5330 C.ar    1  UNL1        0.0016
      8 C          61.3010   91.0734    4.7142 C.ar    1  UNL1        0.0191
      9 C          59.8555   90.9668    5.1003 C.ar    1  UNL1        0.0835
     10 C          61.0593   93.4657    1.5569 C.ar    1  UNL1        0.0193
     11 C          62.2402   93.0652    0.7232 C.ar    1  UNL1        0.0044
     12 C          62.6415   93.8981   -0.4580 C.ar    1  UNL1        0.0341
     13 C          61.8619   95.1317   -0.8054 C.ar    1  UNL1        0.1285
     14 N          60.6811   95.5322    0.0283 N.ar    1  UNL1       -0.2294
     15 C          60.2798   94.6992    1.2095 C.ar    1  UNL1        0.1003
     16 N          62.2633   95.9646   -1.9866 N.pl3   1  UNL1       -0.3196
     17 H          63.0072   96.6045   -1.9076 H       1  UNL1        0.1481
     18 C          61.5311   95.8226   -3.2880 C.3     1  UNL1        0.0731
     19 C          60.5804   94.6806   -3.4929 C.3     1  UNL1        0.0369
     20 C          59.8482   94.5386   -4.7943 C.3     1  UNL1        0.0738
     21 N          60.0667   95.5385   -5.8908 N.3     1  UNL1       -0.2714
     22 C          59.3345   95.3965   -7.1923 C.3     1  UNL1        0.0896
     23 C          61.0174   96.6805   -5.6859 C.3     1  UNL1        0.0738
     24 C          61.7496   96.8225   -4.3845 C.3     1  UNL1        0.0369
     25 C          61.0749   88.6619    9.2011 C.ar    1  UNL1        0.1512
     26 C          60.5832   89.8584    8.4417 C.ar    1  UNL1        0.0619
     27 C          59.8278   89.3679    7.2423 C.ar    1  UNL1        0.0987
     28 S          59.8526   87.8682    7.2602 S.2     1  UNL1       -0.0618
     29 C          60.6234   87.4319    8.4708 C.ar    1  UNL1        0.1178
     30 C          60.8949   86.0143    8.8795 C.2     1  UNL1        0.2518
     31 N          61.1556   84.9695    7.8352 N.am    1  UNL1       -0.3248
     32 O          60.9057   85.6416   10.3324 O.2     1  UNL1       -0.2697
     33 H          61.1485   85.2142    6.8816 H       1  UNL1        0.1453
     34 H          61.3338   84.0392    8.1035 H       1  UNL1        0.1453
     35 O          61.8772   88.6903   10.4681 O.3     1  UNL1       -0.4740
     36 C          60.5143   90.1900   12.0940 C.3     1  UNL1        0.0523
     37 C          61.7964   89.8782   11.3805 C.3     1  UNL1        0.1891
     38 C          62.9976   90.7542   11.5794 C.ar    1  UNL1        0.0278
     39 C          63.4838   91.6260   10.4598 C.ar    1  UNL1        0.0000
     40 C          64.6850   92.5021   10.6587 C.ar    1  UNL1       -0.0002
     41 C          65.4001   92.5062   11.9772 C.ar    1  UNL1        0.0008
     42 C          64.9140   91.6344   13.0968 C.ar    1  UNL1        0.0112
     43 C          63.7127   90.7584   12.8979 C.ar    1  UNL1        0.0570
     44 CL         63.2267   89.8866   14.0175 Cl      1  UNL1       -0.0825
@<TRIPOS>BOND
     1    37    36    1
     2    37    35    1
     3    35    25    1
     4    25    26   ar
     5    26    27   ar
     6    27     1    1
     7     1     2   ar
     8     2     3   ar
     9     3     4   ar
    10     4     5   ar
    11     5     6   ar
    12     6    10    1
    13    10    11   ar
    14    11    12   ar
    15    12    13   ar
    16    13    16    1
    17    16    18    1
    18    18    19    1
    19    19    20    1
    20    20    21    1
    21    21    22    1
    22    21    23    1
    23    23    24    1
    24    13    14   ar
    25    14    15   ar
    26     6     7   ar
    27     7     8   ar
    28     8     9   ar
    29    27    28   ar
    30    28    29   ar
    31    29    30    1
    32    30    31   am
    33    30    32    2
    34    37    38    1
    35    38    39   ar
    36    39    40   ar
    37    40    41   ar
    38    41    42   ar
    39    42    43   ar
    40    43    44    1
    41    29    25   ar
    42    43    38   ar
    43     9     1   ar
    44     9     4   ar
    45    15    10   ar
    46    24    18    1
    47    16    17    1
    48    31    33    1
    49    31    34    1
@<TRIPOS>MOLECULE
*****
 44 49 0 0 0
SMALL
GASTEIGER

@<TRIPOS>ATOM
      1 N          59.1728   90.3163    6.2782 N.ar    1  UNL1       -0.2823
      2 C          57.7003   90.5370    6.0964 C.ar    1  UNL1        0.1831
      3 N          57.5036   91.3480    4.8500 N.ar    1  UNL1       -0.2236
      4 C          58.8546   91.6285    4.2614 C.ar    1  UNL1        0.0991
      5 C          59.2786   92.3821    3.0358 C.ar    1  UNL1        0.0207
      6 C          60.7342   92.4981    2.6929 C.ar    1  UNL1        0.0031
      7 C          61.7658   91.8604    3.5756 C.ar    1  UNL1        0.0016
      8 C          61.3418   91.1068    4.8013 C.ar    1  UNL1        0.0191
      9 C          59.8862   90.9908    5.1442 C.ar    1  UNL1        0.0835
     10 C          61.1583   93.2518    1.4673 C.ar    1  UNL1        0.0193
     11 C          62.2207   94.3062    1.5654 C.ar    1  UNL1        0.0044
     12 C          62.6448   95.0599    0.3398 C.ar    1  UNL1        0.0341
     13 C          62.0065   94.7591   -0.9840 C.ar    1  UNL1        0.1285
     14 N          60.9442   93.7047   -1.0821 N.ar    1  UNL1       -0.2294
     15 C          60.5201   92.9510    0.1436 C.ar    1  UNL1        0.1003
     16 N          62.4307   95.5128   -2.2095 N.pl3   1  UNL1       -0.3196
     17 H          62.3588   96.4944   -2.2332 H       1  UNL1        0.1481
     18 C          62.9643   94.7710   -3.3990 C.3     1  UNL1        0.0731
     19 C          63.8851   93.6032   -3.2033 C.3     1  UNL1        0.0369
     20 C          64.4188   92.8613   -4.3928 C.3     1  UNL1        0.0738
     21 N          64.0316   93.2872   -5.7780 N.3     1  UNL1       -0.2714
     22 C          64.5653   92.5454   -6.9674 C.3     1  UNL1        0.0896
     23 C          63.1108   94.4550   -5.9736 C.3     1  UNL1        0.0738
     24 C          62.5772   95.1969   -4.7841 C.3     1  UNL1        0.0369
     25 C          60.9709   89.0280    9.4677 C.ar    1  UNL1        0.1512
     26 C          60.4547   90.1511    8.6179 C.ar    1  UNL1        0.0619
     27 C          59.8186   89.5546    7.3975 C.ar    1  UNL1        0.0987
     28 S          59.9416   88.0627    7.4929 S.2     1  UNL1       -0.0618
     29 C          60.6537   87.7372    8.7723 C.ar    1  UNL1        0.1178
     30 C          60.9898   86.3623    9.2692 C.2     1  UNL1        0.2518
     31 N          61.3545   85.2813    8.2954 N.am    1  UNL1       -0.3248
     32 O          60.9611   86.0685   10.7399 O.2     1  UNL1       -0.2697
     33 H          61.3733   85.4741    7.3302 H       1  UNL1        0.1453
     34 H          61.5750   84.3789    8.6215 H       1  UNL1        0.1453
     35 O          61.6797   89.1704   10.7819 O.3     1  UNL1       -0.4740
     36 C          62.9834   91.2219    9.8643 C.3     1  UNL1        0.0523
     37 C          62.7357   90.2217   10.9544 C.3     1  UNL1        0.1891
     38 C          63.5439   90.2728   12.2170 C.ar    1  UNL1        0.0278
     39 C          63.3641   89.2157   13.2659 C.ar    1  UNL1        0.0000
     40 C          64.1723   89.2667   14.5285 C.ar    1  UNL1       -0.0002
     41 C          65.1603   90.3749   14.7422 C.ar    1  UNL1        0.0008
     42 C          65.3401   91.4320   13.6934 C.ar    1  UNL1        0.0112
     43 C          64.5319   91.3810   12.4307 C.ar    1  UNL1        0.0570
     44 CL         64.7117   92.4381   11.3819 Cl      1  UNL1       -0.0825
@<TRIPOS>BOND
     1    37    36    1
     2    37    35    1
     3    35    25    1
     4    25    26   ar
     5    26    27   ar
     6    27     1    1
     7     1     2   ar
     8     2     3   ar
     9     3     4   ar
    10     4     5   ar
    11     5     6   ar
    12     6    10    1
    13    10    11   ar
    14    11    12   ar
    15    12    13   ar
    16    13    16    1
    17    16    18    1
    18    18    19    1
    19    19    20    1
    20    20    21    1
    21    21    22    1
    22    21    23    1
    23    23    24    1
    24    13    14   ar
    25    14    15   ar
    26     6     7   ar
    27     7     8   ar
    28     8     9   ar
    29    27    28   ar
    30    28    29   ar
    31    29    30    1
    32    30    31   am
    33    30    32    2
    34    37    38    1
    35    38    39   ar
    36    39    40   ar
    37    40    41   ar
    38    41    42   ar
    39    42    43   ar
    40    43    44    1
    41    29    25   ar
    42    43    38   ar
    43     9     1   ar
    44     9     4   ar
    45    15    10   ar
    46    24    18    1
    47    16    17    1
    48    31    33    1
    49    31    34    1
@<TRIPOS>MOLECULE
*****
 44 49 0 0 0
SMALL
GASTEIGER

@<TRIPOS>ATOM
      1 N          61.8309   86.5292   10.6586 N.ar    1  UNL1       -0.2823
      2 C          61.2491   85.2435   10.1503 C.ar    1  UNL1        0.1831
      3 N          60.5383   85.5339    8.8617 N.ar    1  UNL1       -0.2236
      4 C          60.6809   86.9991    8.5736 C.ar    1  UNL1        0.0991
      5 C          60.1865   87.8526    7.4436 C.ar    1  UNL1        0.0207
      6 C          60.4910   89.3212    7.4241 C.ar    1  UNL1        0.0031
      7 C          61.2899   89.9363    8.5346 C.ar    1  UNL1        0.0016
      8 C          61.7843   89.0828    9.6647 C.ar    1  UNL1        0.0191
      9 C          61.4798   87.6142    9.6842 C.ar    1  UNL1        0.0835
     10 C          59.9966   90.1747    6.2940 C.ar    1  UNL1        0.0193
     11 C          60.9753   90.8303    5.3654 C.ar    1  UNL1        0.0044
     12 C          60.4810   91.6838    4.2354 C.ar    1  UNL1        0.0341
     13 C          59.0078   91.8818    4.0338 C.ar    1  UNL1        0.1285
     14 N          58.0290   91.2262    4.9623 N.ar    1  UNL1       -0.2294
     15 C          58.5234   90.3727    6.0924 C.ar    1  UNL1        0.1003
     16 N          58.5135   92.7353    2.9038 N.pl3   1  UNL1       -0.3196
     17 H          57.5648   92.9950    2.8615 H       1  UNL1        0.1481
     18 C          59.4645   93.1933    1.8380 C.3     1  UNL1        0.0731
     19 C          60.3650   94.3661    2.0900 C.3     1  UNL1        0.0369
     20 C          61.3161   94.8241    1.0243 C.3     1  UNL1        0.0738
     21 N          61.3667   94.1091   -0.2934 N.3     1  UNL1       -0.2714
     22 C          62.3178   94.5671   -1.3591 C.3     1  UNL1        0.0896
     23 C          60.4663   92.9363   -0.5453 C.3     1  UNL1        0.0738
     24 C          59.5152   92.4783    0.5204 C.3     1  UNL1        0.0369
     25 C          63.9125   87.6963   13.7198 C.ar    1  UNL1        0.1512
     26 C          63.1986   87.9872   12.4330 C.ar    1  UNL1        0.0619
     27 C          62.6247   86.6999   11.9199 C.ar    1  UNL1        0.0987
     28 S          62.9837   85.6133   12.8895 S.2     1  UNL1       -0.0618
     29 C          63.7796   86.2290   14.0019 C.ar    1  UNL1        0.1178
     30 C          64.3437   85.5047   15.1882 C.2     1  UNL1        0.2518
     31 N          65.4325   84.4903   14.9996 N.am    1  UNL1       -0.3248
     32 O          63.8189   85.7947   16.5632 O.2     1  UNL1       -0.2697
     33 H          65.7769   84.3000   14.0971 H       1  UNL1        0.1453
     34 H          65.8027   84.0150   15.7782 H       1  UNL1        0.1453
     35 O          64.6326   88.6968   14.5743 O.3     1  UNL1       -0.4740
     36 C          63.3727   90.7468   15.5540 C.3     1  UNL1        0.0523
     37 C          64.2613   90.1484   14.5041 C.3     1  UNL1        0.1891
     38 C          64.7787   91.0015   13.3841 C.ar    1  UNL1        0.0278
     39 C          63.9794   91.1500   12.1235 C.ar    1  UNL1        0.0000
     40 C          64.4967   92.0031   11.0035 C.ar    1  UNL1       -0.0002
     41 C          65.8134   92.7078   11.1441 C.ar    1  UNL1        0.0008
     42 C          66.6127   92.5594   12.4046 C.ar    1  UNL1        0.0112
     43 C          66.0953   91.7062   13.5247 C.ar    1  UNL1        0.0570
     44 CL         66.8946   91.5578   14.7852 Cl      1  UNL1       -0.0825
@<TRIPOS>BOND
     1    37    36    1
     2    37    35    1
     3    35    25    1
     4    25    26   ar
     5    26    27   ar
     6    27     1    1
     7     1     2   ar
     8     2     3   ar
     9     3     4   ar
    10     4     5   ar
    11     5     6   ar
    12     6    10    1
    13    10    11   ar
    14    11    12   ar
    15    12    13   ar
    16    13    16    1
    17    16    18    1
    18    18    19    1
    19    19    20    1
    20    20    21    1
    21    21    22    1
    22    21    23    1
    23    23    24    1
    24    13    14   ar
    25    14    15   ar
    26     6     7   ar
    27     7     8   ar
    28     8     9   ar
    29    27    28   ar
    30    28    29   ar
    31    29    30    1
    32    30    31   am
    33    30    32    2
    34    37    38    1
    35    38    39   ar
    36    39    40   ar
    37    40    41   ar
    38    41    42   ar
    39    42    43   ar
    40    43    44    1
    41    29    25   ar
    42    43    38   ar
    43     9     1   ar
    44     9     4   ar
    45    15    10   ar
    46    24    18    1
    47    16    17    1
    48    31    33    1
    49    31    34    1
