@<TRIPOS>MOLECULE
*****
 36 40 0 0 0
SMALL
GASTEIGER

@<TRIPOS>ATOM
      1 C          62.8367   83.4523   12.5231 C.3     1  UNL1        0.0748
      2 C          63.1989   84.5881   11.6129 C.3     1  UNL1        0.0197
      3 C          63.4063   85.9632   12.1753 C.3     1  UNL1        0.0020
      4 C          63.2513   86.2024   13.6479 C.3     1  UNL1        0.0043
      5 C          62.8891   85.0665   14.5582 C.3     1  UNL1        0.0025
      6 C          62.6817   83.6915   13.9958 C.3     1  UNL1        0.0197
      7 C          62.7341   85.3057   16.0309 C.3     1  UNL1        0.0113
      8 C          62.9415   86.6807   16.5933 C.3     1  UNL1        0.1028
      9 C          62.8583   87.2161   17.9920 C.2     1  UNL1        0.3164
     10 O          62.5231   86.4238   19.2208 O.2     1  UNL1       -0.2501
     11 O          63.1692   88.6828   17.9462 O.3     1  UNL1       -0.4523
     12 C          63.4445   89.0539   16.5192 C.3     1  UNL1        0.1697
     13 C          63.7984   90.4221   16.0165 C.3     1  UNL1        0.0473
     14 C          63.3038   87.8166   15.6830 C.3     1  UNL1        0.0547
     15 C          63.4587   87.5774   14.2103 C.3     1  UNL1        0.0261
     16 C          62.9485   80.8707   12.7927 C.2     1  UNL1        0.4016
     17 O          63.4751   81.0391   14.1871 O.2     1  UNL1       -0.2264
     18 N          62.6293   82.0773   11.9607 N.am    1  UNL1       -0.2723
     19 H          62.2837   81.9667   11.0455 H       1  UNL1        0.1527
     20 O          62.7412   79.4957   12.2303 O.3     1  UNL1       -0.4347
     21 C          62.8071   77.8890   10.1896 C.3     1  UNL1        0.0513
     22 C          62.7631   79.2814   10.7458 C.3     1  UNL1        0.2102
     23 C          63.8209   88.7132   13.3001 C.2     1  UNL1       -0.0248
     24 C          64.5752   89.8934   13.8370 C.2     1  UNL1        0.0145
     25 C          64.9375   91.0293   12.9267 C.ar    1  UNL1        0.0810
     26 C          64.1489   91.2664   11.6729 C.ar    1  UNL1        0.0192
     27 C          64.5111   92.4022   10.7626 C.ar    1  UNL1        0.0046
     28 C          65.6620   93.3009   11.1060 C.ar    1  UNL1        0.0368
     29 C          66.4506   93.0638   12.3598 C.ar    1  UNL1        0.1003
     30 N          66.0883   91.9279   13.2701 N.ar    1  UNL1       -0.2438
     31 C          66.0242   94.4368   10.1957 C.ar    1  UNL1        0.0828
     32 C          67.1614   94.2896    9.2287 C.ar    1  UNL1        0.0192
     33 C          67.5236   95.4254    8.3184 C.ar    1  UNL1        0.0031
     34 C          66.7486   96.7084    8.3751 C.ar    1  UNL1        0.0207
     35 C          65.6113   96.8556    9.3421 C.ar    1  UNL1        0.0988
     36 N          65.2492   95.7197   10.2524 N.ar    1  UNL1       -0.2438
@<TRIPOS>BOND
     1    21    22    1
     2    22    20    1
     3    20    16    1
     4    16    17    2
     5    16    18   am
     6     1    18    1
     7     1     2    1
     8     2     3    1
     9     4     3    1
    10     4     5    1
    11     5     6    1
    12     5     7    1
    13     8     7    1
    14     8     9    1
    15     9    10    2
    16     9    11    1
    17    11    12    1
    18    12    13    1
    19    14    12    1
    20    14    15    1
    21    15    23    1
    22    23    24    2
    23    24    25    1
    24    25    26   ar
    25    26    27   ar
    26    27    28   ar
    27    28    31    1
    28    31    32   ar
    29    32    33   ar
    30    33    34   ar
    31    34    35   ar
    32    35    36   ar
    33    28    29   ar
    34    29    30   ar
    35     6     1    1
    36    14     8    1
    37    30    25   ar
    38    15     4    1
    39    36    31   ar
    40    18    19    1
@<TRIPOS>MOLECULE
*****
 36 40 0 0 0
SMALL
GASTEIGER

@<TRIPOS>ATOM
      1 C          62.8266   80.8454   11.9488 C.3     1  UNL1        0.0748
      2 C          62.3873   81.6954   10.7937 C.3     1  UNL1        0.0197
      3 C          62.4330   83.1908   10.9027 C.3     1  UNL1        0.0020
      4 C          62.9181   83.8361   12.1669 C.3     1  UNL1        0.0043
      5 C          63.3574   82.9860   13.3221 C.3     1  UNL1        0.0025
      6 C          63.3117   81.4907   13.2130 C.3     1  UNL1        0.0197
      7 C          63.8425   83.6313   14.5864 C.3     1  UNL1        0.0113
      8 C          63.8882   85.1267   14.6954 C.3     1  UNL1        0.1028
      9 C          64.3155   86.0394   15.8065 C.2     1  UNL1        0.3164
     10 O          64.8280   85.6128   17.1501 O.2     1  UNL1       -0.2501
     11 O          64.1402   87.4535   15.3380 O.3     1  UNL1       -0.4523
     12 C          63.6046   87.4147   13.9374 C.3     1  UNL1        0.1697
     13 C          63.2814   88.6051   13.0837 C.3     1  UNL1        0.0473
     14 C          63.4489   85.9767   13.5402 C.3     1  UNL1        0.0547
     15 C          62.9638   85.3314   12.2760 C.3     1  UNL1        0.0261
     16 C          62.8045   78.6954   10.4904 C.2     1  UNL1        0.4016
     17 O          62.8740   79.5361    9.2500 O.2     1  UNL1       -0.2264
     18 N          62.7808   79.3501   11.8397 N.am    1  UNL1       -0.2723
     19 H          62.7353   78.7983   12.6538 H       1  UNL1        0.1527
     20 O          62.7588   77.2001   10.3813 O.3     1  UNL1       -0.4347
     21 C          64.7637   76.5904    8.8454 C.3     1  UNL1        0.0513
     22 C          64.0211   76.4269   10.1384 C.3     1  UNL1        0.2102
     23 C          62.5245   86.1814   11.1209 C.2     1  UNL1       -0.0248
     24 C          61.1104   86.6766   11.0492 C.2     1  UNL1        0.0145
     25 C          60.6711   87.5267    9.8939 C.ar    1  UNL1        0.0810
     26 C          59.9848   86.8973    8.7180 C.ar    1  UNL1        0.0192
     27 C          59.5454   87.7473    7.5628 C.ar    1  UNL1        0.0046
     28 C          59.7924   89.2267    7.5836 C.ar    1  UNL1        0.0368
     29 C          60.4787   89.8561    8.7595 C.ar    1  UNL1        0.1003
     30 N          60.9181   89.0060    9.9147 N.ar    1  UNL1       -0.2438
     31 C          59.3531   90.0767    6.4284 C.ar    1  UNL1        0.0828
     32 C          60.3752   90.7031    5.5267 C.ar    1  UNL1        0.0192
     33 C          59.9359   91.5531    4.3715 C.ar    1  UNL1        0.0031
     34 C          58.4745   91.7768    4.1180 C.ar    1  UNL1        0.0207
     35 C          57.4524   91.1504    5.0197 C.ar    1  UNL1        0.0988
     36 N          57.8918   90.3004    6.1749 N.ar    1  UNL1       -0.2438
@<TRIPOS>BOND
     1    21    22    1
     2    22    20    1
     3    20    16    1
     4    16    17    2
     5    16    18   am
     6     1    18    1
     7     1     2    1
     8     2     3    1
     9     4     3    1
    10     4     5    1
    11     5     6    1
    12     5     7    1
    13     8     7    1
    14     8     9    1
    15     9    10    2
    16     9    11    1
    17    11    12    1
    18    12    13    1
    19    14    12    1
    20    14    15    1
    21    15    23    1
    22    23    24    2
    23    24    25    1
    24    25    26   ar
    25    26    27   ar
    26    27    28   ar
    27    28    31    1
    28    31    32   ar
    29    32    33   ar
    30    33    34   ar
    31    34    35   ar
    32    35    36   ar
    33    28    29   ar
    34    29    30   ar
    35     6     1    1
    36    14     8    1
    37    30    25   ar
    38    15     4    1
    39    36    31   ar
    40    18    19    1
@<TRIPOS>MOLECULE
*****
 36 40 0 0 0
SMALL
GASTEIGER

@<TRIPOS>ATOM
      1 C          65.6233   93.1678   10.7018 C.3     1  UNL1        0.0748
      2 C          65.2745   91.7687   10.2887 C.3     1  UNL1        0.0197
      3 C          64.8071   90.7785   11.3138 C.3     1  UNL1        0.0020
      4 C          64.6885   91.1873   12.7521 C.3     1  UNL1        0.0043
      5 C          65.0373   92.5864   13.1653 C.3     1  UNL1        0.0025
      6 C          65.5047   93.5767   12.1401 C.3     1  UNL1        0.0197
      7 C          64.9187   92.9953   14.6036 C.3     1  UNL1        0.0113
      8 C          64.4513   92.0051   15.6287 C.3     1  UNL1        0.1028
      9 C          64.2373   92.1182   17.1091 C.2     1  UNL1        0.3164
     10 O          64.4645   93.3451   17.9415 O.2     1  UNL1       -0.2501
     11 O          63.7562   90.7890   17.6108 O.3     1  UNL1       -0.4523
     12 C          63.6728   89.8543   16.4405 C.3     1  UNL1        0.1697
     13 C          63.2365   88.4200   16.4870 C.3     1  UNL1        0.0473
     14 C          64.1024   90.6059   15.2155 C.3     1  UNL1        0.0547
     15 C          64.2210   90.1970   13.7772 C.3     1  UNL1        0.0261
     16 C          67.5404   94.2155    9.2958 C.2     1  UNL1        0.4016
     17 O          68.5227   93.2827    9.9400 O.2     1  UNL1       -0.2264
     18 N          66.0908   94.1581    9.6767 N.am    1  UNL1       -0.2723
     19 H          65.4461   94.7703    9.2539 H       1  UNL1        0.1527
     20 O          68.0079   95.2058    8.2707 O.3     1  UNL1       -0.4347
     21 C          66.1428   96.8101    7.4353 C.3     1  UNL1        0.0513
     22 C          67.3998   96.5761    8.2197 C.3     1  UNL1        0.2102
     23 C          63.8722   88.7979   13.3640 C.2     1  UNL1       -0.0248
     24 C          64.4617   87.6301   14.0980 C.2     1  UNL1        0.0145
     25 C          64.1129   86.2309   13.6847 C.ar    1  UNL1        0.0810
     26 C          64.7237   85.0631   14.4009 C.ar    1  UNL1        0.0192
     27 C          64.3749   83.6640   13.9878 C.ar    1  UNL1        0.0046
     28 C          63.4151   83.4327   12.8584 C.ar    1  UNL1        0.0368
     29 C          62.8043   84.6005   12.1422 C.ar    1  UNL1        0.1003
     30 N          63.1532   85.9997   12.5554 N.ar    1  UNL1       -0.2438
     31 C          63.0663   82.0336   12.4452 C.ar    1  UNL1        0.0828
     32 C          63.2214   81.6136   11.0136 C.ar    1  UNL1        0.0192
     33 C          62.8726   80.2145   10.6004 C.ar    1  UNL1        0.0031
     34 C          62.3686   79.2352   11.6189 C.ar    1  UNL1        0.0207
     35 C          62.2135   79.6552   13.0505 C.ar    1  UNL1        0.0988
     36 N          62.5624   81.0544   13.4637 N.ar    1  UNL1       -0.2438
@<TRIPOS>BOND
     1    21    22    1
     2    22    20    1
     3    20    16    1
     4    16    17    2
     5    16    18   am
     6     1    18    1
     7     1     2    1
     8     2     3    1
     9     4     3    1
    10     4     5    1
    11     5     6    1
    12     5     7    1
    13     8     7    1
    14     8     9    1
    15     9    10    2
    16     9    11    1
    17    11    12    1
    18    12    13    1
    19    14    12    1
    20    14    15    1
    21    15    23    1
    22    23    24    2
    23    24    25    1
    24    25    26   ar
    25    26    27   ar
    26    27    28   ar
    27    28    31    1
    28    31    32   ar
    29    32    33   ar
    30    33    34   ar
    31    34    35   ar
    32    35    36   ar
    33    28    29   ar
    34    29    30   ar
    35     6     1    1
    36    14     8    1
    37    30    25   ar
    38    15     4    1
    39    36    31   ar
    40    18    19    1
