@<TRIPOS>MOLECULE
*****
 34 37 0 0 0
SMALL
GASTEIGER

@<TRIPOS>ATOM
      1 N          64.6400   88.9811   14.6060 N.pl3   1  UNL1       -0.2560
      2 H          65.5459   88.6621   14.8221 H       1  UNL1        0.2592
      3 C          63.8648   88.3402   13.4930 C.3     1  UNL1        0.2144
      4 C          63.1648   89.2835   12.5602 C.3     1  UNL1        0.0490
      5 C          62.3193   88.9605   11.3641 C.3     1  UNL1        0.0057
      6 C          61.9650   87.6142   10.8054 C.3     1  UNL1        0.0216
      7 C          62.3686   86.2587   11.3048 C.3     1  UNL1        0.0940
      8 N          63.2263   85.9145   12.4862 N.am    1  UNL1       -0.2686
      9 C          63.8922   86.8409   13.4602 C.2     1  UNL1        0.2622
     10 O          64.6911   86.1806   14.5445 O.2     1  UNL1       -0.2712
     11 C          63.4474   84.4503   12.7255 C.3     1  UNL1        0.1794
     12 C          62.5441   83.6977   13.6570 C.2     1  UNL1        0.2459
     13 O          61.8264   84.4241   14.7557 O.2     1  UNL1       -0.2730
     14 N          62.3585   82.2186   13.4897 N.am    1  UNL1       -0.2781
     15 C          63.0065   81.3615   12.4432 C.3     1  UNL1        0.0935
     16 C          62.5408   79.9501   12.6463 C.3     1  UNL1        0.0233
     17 C          61.6049   79.9351   13.8185 C.3     1  UNL1        0.0233
     18 C          61.4922   81.3371   14.3397 C.3     1  UNL1        0.0935
     19 N          64.4666   91.5203   15.1277 N.pl3   1  UNL1       -0.0709
     20 C          64.0347   90.1079   15.3895 C.cat   1  UNL1        0.4016
     21 C          67.7717   93.7283    8.3584 C.3     1  UNL1        0.0725
     22 C          67.4103   93.2476    9.7325 C.ar    1  UNL1        0.1233
     23 C          66.0261   93.1765   10.3060 C.ar    1  UNL1        0.0361
     24 C          66.1299   92.6385   11.7024 C.ar    1  UNL1        0.0402
     25 C          65.0927   92.3529   12.7476 C.ar    1  UNL1        0.0402
     26 C          65.5039   91.8059   14.0824 C.ar    1  UNL1        0.1590
     27 C          66.9523   91.5444   14.3719 C.ar    1  UNL1        0.0402
     28 C          67.9895   91.8300   13.3266 C.ar    1  UNL1        0.0405
     29 C          67.5783   92.3771   11.9919 C.ar    1  UNL1        0.1450
     30 O          68.3696   92.7535   10.7744 O.2     1  UNL1       -0.4577
     31 N          62.9975   89.8223   16.4349 N.pl3   1  UNL1       -0.1773
     32 H          62.4641   90.5583   16.8131 H       1  UNL1        0.2780
     33 C          62.7730   88.4153   16.9039 C.1     1  UNL1        0.2552
     34 N          62.5485   87.0083   17.3729 N.1     1  UNL1       -0.1538
@<TRIPOS>BOND
     1    21    22    1
     2    22    23   ar
     3    23    24   ar
     4    24    25   ar
     5    25    26   ar
     6    26    19    1
     7    19    20    2
     8    20    31    1
     9    31    33    1
    10    33    34    3
    11    20     1    1
    12     3     1    1
    13     3     4    1
    14     4     5    1
    15     5     6    1
    16     6     7    1
    17     7     8    1
    18     8    11    1
    19    11    12    1
    20    12    13    2
    21    12    14   am
    22    14    15    1
    23    15    16    1
    24    16    17    1
    25    17    18    1
    26     8     9   am
    27     9    10    2
    28    26    27   ar
    29    27    28   ar
    30    28    29   ar
    31    29    30   ar
    32    30    22   ar
    33    29    24   ar
    34     9     3    1
    35    18    14    1
    36    31    32    1
    37     1     2    1
@<TRIPOS>MOLECULE
*****
 34 37 0 0 0
SMALL
GASTEIGER

@<TRIPOS>ATOM
      1 N          64.3298   89.3797   13.8668 N.pl3   1  UNL1       -0.2560
      2 H          65.0570   88.7217   13.9534 H       1  UNL1        0.2592
      3 C          63.4309   89.3504   12.6662 C.3     1  UNL1        0.2144
      4 C          63.1728   90.6763   12.0140 C.3     1  UNL1        0.0490
      5 C          62.3291   90.9785   10.8112 C.3     1  UNL1        0.0057
      6 C          61.5351   90.0293    9.9634 C.3     1  UNL1        0.0216
      7 C          61.3888   88.5436   10.1091 C.3     1  UNL1        0.0940
      8 N          62.0002   87.6402   11.1386 N.am    1  UNL1       -0.2686
      9 C          62.9091   87.9992   12.2766 C.2     1  UNL1        0.2622
     10 O          63.3551   86.8559   13.1391 O.2     1  UNL1       -0.2712
     11 C          61.6576   86.1852   11.0136 C.3     1  UNL1        0.1794
     12 C          62.5472   85.2701   10.2254 C.2     1  UNL1        0.2459
     13 O          62.8742   85.5893    8.7967 O.2     1  UNL1       -0.2730
     14 N          63.1097   84.0358   10.8659 N.am    1  UNL1       -0.2781
     15 C          62.8721   83.5887   12.2777 C.3     1  UNL1        0.0935
     16 C          63.6241   82.3086   12.4914 C.3     1  UNL1        0.0233
     17 C          64.3266   81.9645   11.2114 C.3     1  UNL1        0.0233
     18 C          64.0086   83.0321   10.2068 C.3     1  UNL1        0.0935
     19 N          64.8952   91.6954   14.9000 N.pl3   1  UNL1       -0.0709
     20 C          64.1206   90.4114   14.9353 C.cat   1  UNL1        0.4016
     21 C          67.9524   94.1448    8.0973 C.3     1  UNL1        0.0725
     22 C          67.6324   93.5736    9.4469 C.ar    1  UNL1        0.1233
     23 C          66.3008   93.6301   10.1350 C.ar    1  UNL1        0.0361
     24 C          66.4333   92.9370   11.4587 C.ar    1  UNL1        0.0402
     25 C          65.4494   92.6848   12.5625 C.ar    1  UNL1        0.0402
     26 C          65.8791   91.9477   13.7962 C.ar    1  UNL1        0.1590
     27 C          67.2926   91.4629   13.9261 C.ar    1  UNL1        0.0402
     28 C          68.2765   91.7152   12.8224 C.ar    1  UNL1        0.0405
     29 C          67.8468   92.4523   11.5887 C.ar    1  UNL1        0.1450
     30 O          68.5879   92.8457   10.3453 O.2     1  UNL1       -0.4577
     31 N          63.1367   90.1591   16.0391 N.pl3   1  UNL1       -0.1773
     32 H          62.5833   90.8970   16.3835 H       1  UNL1        0.2780
     33 C          62.9960   88.7826   16.6183 C.1     1  UNL1        0.2552
     34 N          62.8553   87.4061   17.1974 N.1     1  UNL1       -0.1538
@<TRIPOS>BOND
     1    21    22    1
     2    22    23   ar
     3    23    24   ar
     4    24    25   ar
     5    25    26   ar
     6    26    19    1
     7    19    20    2
     8    20    31    1
     9    31    33    1
    10    33    34    3
    11    20     1    1
    12     3     1    1
    13     3     4    1
    14     4     5    1
    15     5     6    1
    16     6     7    1
    17     7     8    1
    18     8    11    1
    19    11    12    1
    20    12    13    2
    21    12    14   am
    22    14    15    1
    23    15    16    1
    24    16    17    1
    25    17    18    1
    26     8     9   am
    27     9    10    2
    28    26    27   ar
    29    27    28   ar
    30    28    29   ar
    31    29    30   ar
    32    30    22   ar
    33    29    24   ar
    34     9     3    1
    35    18    14    1
    36    31    32    1
    37     1     2    1
@<TRIPOS>MOLECULE
*****
 34 37 0 0 0
SMALL
GASTEIGER

@<TRIPOS>ATOM
      1 N          61.8360   88.3074   11.2170 N.pl3   1  UNL1       -0.2560
      2 H          61.7784   87.6308   11.9298 H       1  UNL1        0.2592
      3 C          62.7362   89.4959   11.3820 C.3     1  UNL1        0.2144
      4 C          62.7874   90.4402   10.2176 C.3     1  UNL1        0.0490
      5 C          63.5811   91.7047   10.0731 C.3     1  UNL1        0.0057
      6 C          64.5198   92.3373   11.0575 C.3     1  UNL1        0.0216
      7 C          64.8964   91.8616   12.4293 C.3     1  UNL1        0.0940
      8 N          64.4275   90.6358   13.1556 N.am    1  UNL1       -0.2686
      9 C          63.4661   89.5830   12.6895 C.2     1  UNL1        0.2622
     10 O          63.1993   88.4700   13.6591 O.2     1  UNL1       -0.2712
     11 C          64.9950   90.4365   14.5297 C.3     1  UNL1        0.1794
     12 C          65.3644   91.6241   15.3683 C.2     1  UNL1        0.2459
     13 O          64.3361   92.2687   16.2498 O.2     1  UNL1       -0.2730
     14 N          66.7620   92.1670   15.3252 N.am    1  UNL1       -0.2781
     15 C          67.8912   91.6304   14.4966 C.3     1  UNL1        0.0935
     16 C          69.1029   92.4736   14.7625 C.3     1  UNL1        0.0233
     17 C          68.7225   93.5315   15.7557 C.3     1  UNL1        0.0233
     18 C          67.2758   93.3420   16.1034 C.3     1  UNL1        0.0935
     19 N          61.0928   86.8727    9.1825 N.pl3   1  UNL1       -0.0709
     20 C          61.0235   88.1499    9.9659 C.cat   1  UNL1        0.4016
     21 C          64.2594   81.3306   13.7520 C.3     1  UNL1        0.0725
     22 C          63.8473   82.3005   12.6846 C.ar    1  UNL1        0.1233
     23 C          62.7558   83.3234   12.7964 C.ar    1  UNL1        0.0361
     24 C          62.6883   84.0729   11.4988 C.ar    1  UNL1        0.0402
     25 C          61.8066   85.1927   11.0313 C.ar    1  UNL1        0.0402
     26 C          61.9746   85.7529    9.6501 C.ar    1  UNL1        0.1590
     27 C          63.0243   85.1933    8.7363 C.ar    1  UNL1        0.0402
     28 C          63.9061   84.0736    9.2039 C.ar    1  UNL1        0.0405
     29 C          63.7381   83.5134   10.5851 C.ar    1  UNL1        0.1450
     30 O          64.4544   82.4180   11.3180 O.2     1  UNL1       -0.4577
     31 N          60.1418   89.2698    9.4983 N.pl3   1  UNL1       -0.1773
     32 H          59.8288   89.9498   10.1378 H       1  UNL1        0.2780
     33 C          59.7368   89.3535    8.0564 C.1     1  UNL1        0.2552
     34 N          59.3319   89.4372    6.6145 N.1     1  UNL1       -0.1538
@<TRIPOS>BOND
     1    21    22    1
     2    22    23   ar
     3    23    24   ar
     4    24    25   ar
     5    25    26   ar
     6    26    19    1
     7    19    20    2
     8    20    31    1
     9    31    33    1
    10    33    34    3
    11    20     1    1
    12     3     1    1
    13     3     4    1
    14     4     5    1
    15     5     6    1
    16     6     7    1
    17     7     8    1
    18     8    11    1
    19    11    12    1
    20    12    13    2
    21    12    14   am
    22    14    15    1
    23    15    16    1
    24    16    17    1
    25    17    18    1
    26     8     9   am
    27     9    10    2
    28    26    27   ar
    29    27    28   ar
    30    28    29   ar
    31    29    30   ar
    32    30    22   ar
    33    29    24   ar
    34     9     3    1
    35    18    14    1
    36    31    32    1
    37     1     2    1
@<TRIPOS>MOLECULE
*****
 34 37 0 0 0
SMALL
GASTEIGER

@<TRIPOS>ATOM
      1 N          64.5172   88.5764   14.5989 N.pl3   1  UNL1       -0.2560
      2 H          65.4983   88.6178   14.6694 H       1  UNL1        0.2592
      3 C          63.8686   87.4960   13.7852 C.3     1  UNL1        0.2144
      4 C          63.9513   86.1119   14.3574 C.3     1  UNL1        0.0490
      5 C          63.4090   84.8325   13.7927 C.3     1  UNL1        0.0057
      6 C          62.6499   84.6212   12.5162 C.3     1  UNL1        0.0216
      7 C          62.2458   85.6371   11.4893 C.3     1  UNL1        0.0940
      8 N          62.5009   87.1152   11.4852 N.am    1  UNL1       -0.2686
      9 C          63.2232   87.9426   12.5070 C.2     1  UNL1        0.2622
     10 O          63.3116   89.4105   12.2115 O.2     1  UNL1       -0.2712
     11 C          61.9627   87.8653   10.3030 C.3     1  UNL1        0.1794
     12 C          60.9468   87.2225    9.4059 C.2     1  UNL1        0.2459
     13 O          59.4989   87.5962    9.5237 O.2     1  UNL1       -0.2730
     14 N          61.3789   86.2059    8.3910 N.am    1  UNL1       -0.2781
     15 C          62.7835   85.7342    8.1585 C.3     1  UNL1        0.0935
     16 C          62.7549   84.7194    7.0542 C.3     1  UNL1        0.0233
     17 C          61.3324   84.5640    6.6043 C.3     1  UNL1        0.0233
     18 C          60.4820   85.4827    7.4305 C.3     1  UNL1        0.0935
     19 N          63.9199   91.0570   15.0885 N.pl3   1  UNL1       -0.0709
     20 C          63.6710   89.5938   15.3051 C.cat   1  UNL1        0.4016
     21 C          67.6004   93.8909    8.7603 C.3     1  UNL1        0.0725
     22 C          67.1628   93.3205   10.0768 C.ar    1  UNL1        0.1233
     23 C          65.7467   93.0630   10.4991 C.ar    1  UNL1        0.0361
     24 C          65.7731   92.4908   11.8854 C.ar    1  UNL1        0.0402
     25 C          64.6779   92.0450   12.8082 C.ar    1  UNL1        0.0402
     26 C          65.0151   91.5029   14.1656 C.ar    1  UNL1        0.1590
     27 C          66.4476   91.4068   14.6001 C.ar    1  UNL1        0.0402
     28 C          67.5428   91.8526   13.6773 C.ar    1  UNL1        0.0405
     29 C          67.2056   92.3947   12.3199 C.ar    1  UNL1        0.1450
     30 O          68.0644   92.9074   11.2021 O.2     1  UNL1       -0.4577
     31 N          62.5757   89.1479   16.2281 N.pl3   1  UNL1       -0.1773
     32 H          61.7233   89.6397   16.2541 H       1  UNL1        0.2780
     33 C          62.7794   87.9527   17.1112 C.1     1  UNL1        0.2552
     34 N          62.9830   86.7574   17.9943 N.1     1  UNL1       -0.1538
@<TRIPOS>BOND
     1    21    22    1
     2    22    23   ar
     3    23    24   ar
     4    24    25   ar
     5    25    26   ar
     6    26    19    1
     7    19    20    2
     8    20    31    1
     9    31    33    1
    10    33    34    3
    11    20     1    1
    12     3     1    1
    13     3     4    1
    14     4     5    1
    15     5     6    1
    16     6     7    1
    17     7     8    1
    18     8    11    1
    19    11    12    1
    20    12    13    2
    21    12    14   am
    22    14    15    1
    23    15    16    1
    24    16    17    1
    25    17    18    1
    26     8     9   am
    27     9    10    2
    28    26    27   ar
    29    27    28   ar
    30    28    29   ar
    31    29    30   ar
    32    30    22   ar
    33    29    24   ar
    34     9     3    1
    35    18    14    1
    36    31    32    1
    37     1     2    1
@<TRIPOS>MOLECULE
*****
 34 37 0 0 0
SMALL
GASTEIGER

@<TRIPOS>ATOM
      1 N          62.9752   89.6482   11.6963 N.pl3   1  UNL1       -0.2560
      2 H          63.3898   89.8758   12.5597 H       1  UNL1        0.2592
      3 C          62.7938   88.2109   11.3071 C.3     1  UNL1        0.2144
      4 C          62.2620   87.9730    9.9249 C.3     1  UNL1        0.0490
      5 C          61.9732   86.6671    9.2458 C.3     1  UNL1        0.0057
      6 C          62.1449   85.2765    9.7813 C.3     1  UNL1        0.0216
      7 C          62.6477   84.8483   11.1280 C.3     1  UNL1        0.0940
      8 N          63.1031   85.7051   12.2720 N.am    1  UNL1       -0.2686
      9 C          63.1681   87.2016   12.3517 C.2     1  UNL1        0.2622
     10 O          63.6743   87.7630   13.6473 O.2     1  UNL1       -0.2712
     11 C          63.5530   84.9679   13.4984 C.3     1  UNL1        0.1794
     12 C          62.6068   84.0457   14.2086 C.2     1  UNL1        0.2459
     13 O          61.7744   84.5564   15.3471 O.2     1  UNL1       -0.2730
     14 N          62.4931   82.6126   13.7802 N.am    1  UNL1       -0.2781
     15 C          63.2569   81.9625   12.6650 C.3     1  UNL1        0.0935
     16 C          62.8315   80.5262   12.5874 C.3     1  UNL1        0.0233
     17 C          61.8046   80.2886   13.6547 C.3     1  UNL1        0.0233
     18 C          61.5955   81.5781   14.3919 C.3     1  UNL1        0.0935
     19 N          63.3901   91.9446   10.5544 N.pl3   1  UNL1       -0.0709
     20 C          62.5248   90.7385   10.7698 C.cat   1  UNL1        0.4016
     21 C          68.7286   92.1255   16.3068 C.3     1  UNL1        0.0725
     22 C          67.9336   92.1404   15.0350 C.ar    1  UNL1        0.1233
     23 C          66.4514   91.9409   14.9193 C.ar    1  UNL1        0.0361
     24 C          66.0829   92.0346   13.4683 C.ar    1  UNL1        0.0402
     25 C          64.7672   91.9188   12.7574 C.ar    1  UNL1        0.0402
     26 C          64.7059   92.0604   11.2654 C.ar    1  UNL1        0.1590
     27 C          65.9603   92.3178   10.4842 C.ar    1  UNL1        0.0402
     28 C          67.2761   92.4336   11.1951 C.ar    1  UNL1        0.0405
     29 C          67.3373   92.2920   12.6871 C.ar    1  UNL1        0.1450
     30 O          68.4811   92.3573   13.6554 O.2     1  UNL1       -0.4577
     31 N          61.2090   90.6227   10.0589 N.pl3   1  UNL1       -0.1773
     32 H          61.1863   90.4283    9.0940 H       1  UNL1        0.2780
     33 C          59.9279   90.8032   10.8180 C.1     1  UNL1        0.2552
     34 N          58.6469   90.9837   11.5771 N.1     1  UNL1       -0.1538
@<TRIPOS>BOND
     1    21    22    1
     2    22    23   ar
     3    23    24   ar
     4    24    25   ar
     5    25    26   ar
     6    26    19    1
     7    19    20    2
     8    20    31    1
     9    31    33    1
    10    33    34    3
    11    20     1    1
    12     3     1    1
    13     3     4    1
    14     4     5    1
    15     5     6    1
    16     6     7    1
    17     7     8    1
    18     8    11    1
    19    11    12    1
    20    12    13    2
    21    12    14   am
    22    14    15    1
    23    15    16    1
    24    16    17    1
    25    17    18    1
    26     8     9   am
    27     9    10    2
    28    26    27   ar
    29    27    28   ar
    30    28    29   ar
    31    29    30   ar
    32    30    22   ar
    33    29    24   ar
    34     9     3    1
    35    18    14    1
    36    31    32    1
    37     1     2    1
@<TRIPOS>MOLECULE
*****
 34 37 0 0 0
SMALL
GASTEIGER

@<TRIPOS>ATOM
      1 N          64.5282   89.0072   14.9604 N.pl3   1  UNL1       -0.2560
      2 H          65.4142   88.5919   15.0690 H       1  UNL1        0.2592
      3 C          64.1902   89.7327   13.6917 C.3     1  UNL1        0.2144
      4 C          63.0169   89.1951   12.9273 C.3     1  UNL1        0.0490
      5 C          62.4338   89.6918   11.6377 C.3     1  UNL1        0.0057
      6 C          62.8802   90.8489   10.7938 C.3     1  UNL1        0.0216
      7 C          64.0197   91.7950   11.0313 C.3     1  UNL1        0.0940
      8 N          64.9944   91.8176   12.1712 N.am    1  UNL1       -0.2686
      9 C          65.0703   90.8998   13.3553 C.2     1  UNL1        0.2622
     10 O          66.1719   91.1871   14.3319 O.2     1  UNL1       -0.2712
     11 C          66.0302   92.9014   12.1205 C.3     1  UNL1        0.1794
     12 C          66.8201   93.1258   10.8652 C.2     1  UNL1        0.2459
     13 O          67.5622   91.9862   10.2322 O.2     1  UNL1       -0.2730
     14 N          66.8680   94.4899   10.2429 N.am    1  UNL1       -0.2781
     15 C          66.1806   95.7190   10.7591 C.3     1  UNL1        0.0935
     16 C          66.4995   96.8530    9.8305 C.3     1  UNL1        0.0233
     17 C          67.3840   96.3246    8.7403 C.3     1  UNL1        0.0233
     18 C          67.6118   94.8641    8.9952 C.3     1  UNL1        0.0935
     19 N          62.9482   87.5809   16.4502 N.pl3   1  UNL1       -0.0709
     20 C          63.5161   88.9143   16.0636 C.cat   1  UNL1        0.4016
     21 C          62.8777   80.3635   13.3637 C.3     1  UNL1        0.0725
     22 C          63.1594   81.7545   13.8492 C.ar    1  UNL1        0.1233
     23 C          62.2115   82.6303   14.6137 C.ar    1  UNL1        0.0361
     24 C          62.9047   83.9310   14.8926 C.ar    1  UNL1        0.0402
     25 C          62.4604   85.1716   15.6092 C.ar    1  UNL1        0.0402
     26 C          63.3925   86.3402   15.7336 C.ar    1  UNL1        0.1590
     27 C          64.7687   86.2683   15.1414 C.ar    1  UNL1        0.0402
     28 C          65.2130   85.0277   14.4248 C.ar    1  UNL1        0.0405
     29 C          64.2809   83.8591   14.3004 C.ar    1  UNL1        0.1450
     30 O          64.4383   82.5139   13.6556 O.2     1  UNL1       -0.4577
     31 N          63.0719   90.1550   16.7803 N.pl3   1  UNL1       -0.1773
     32 H          62.2033   90.1716   17.2435 H       1  UNL1        0.2780
     33 C          63.9510   91.3703   16.7910 C.1     1  UNL1        0.2552
     34 N          64.8301   92.5856   16.8018 N.1     1  UNL1       -0.1538
@<TRIPOS>BOND
     1    21    22    1
     2    22    23   ar
     3    23    24   ar
     4    24    25   ar
     5    25    26   ar
     6    26    19    1
     7    19    20    2
     8    20    31    1
     9    31    33    1
    10    33    34    3
    11    20     1    1
    12     3     1    1
    13     3     4    1
    14     4     5    1
    15     5     6    1
    16     6     7    1
    17     7     8    1
    18     8    11    1
    19    11    12    1
    20    12    13    2
    21    12    14   am
    22    14    15    1
    23    15    16    1
    24    16    17    1
    25    17    18    1
    26     8     9   am
    27     9    10    2
    28    26    27   ar
    29    27    28   ar
    30    28    29   ar
    31    29    30   ar
    32    30    22   ar
    33    29    24   ar
    34     9     3    1
    35    18    14    1
    36    31    32    1
    37     1     2    1
@<TRIPOS>MOLECULE
*****
 34 37 0 0 0
SMALL
GASTEIGER

@<TRIPOS>ATOM
      1 N          62.8625   89.3572   10.1087 N.pl3   1  UNL1       -0.2560
      2 H          63.4374   89.1554    9.3353 H       1  UNL1        0.2592
      3 C          63.4770   89.7818   11.4096 C.3     1  UNL1        0.2144
      4 C          63.3599   88.7985   12.5363 C.3     1  UNL1        0.0490
      5 C          63.8641   88.9240   13.9433 C.3     1  UNL1        0.0057
      6 C          64.6102   90.0638   14.5713 C.3     1  UNL1        0.0216
      7 C          65.0361   91.3596   13.9472 C.3     1  UNL1        0.0940
      8 N          64.8213   91.8356   12.5411 N.am    1  UNL1       -0.2686
      9 C          64.1274   91.1334   11.4117 C.2     1  UNL1        0.2622
     10 O          64.0773   91.8818   10.1127 O.2     1  UNL1       -0.2712
     11 C          65.3732   93.1934   12.2221 C.3     1  UNL1        0.1794
     12 C          66.5514   93.3272   11.3033 C.2     1  UNL1        0.2459
     13 O          67.6467   92.3028   11.3341 O.2     1  UNL1       -0.2730
     14 N          66.6343   94.4855   10.3537 N.am    1  UNL1       -0.2781
     15 C          65.6211   95.5822   10.2104 C.3     1  UNL1        0.0935
     16 C          66.1055   96.5249    9.1489 C.3     1  UNL1        0.0233
     17 C          67.4181   96.0107    8.6362 C.3     1  UNL1        0.0233
     18 C          67.7448   94.7502    9.3809 C.3     1  UNL1        0.0935
     19 N          60.7274   87.8864    9.9415 N.pl3   1  UNL1       -0.0709
     20 C          61.3721   89.2400    9.9862 C.cat   1  UNL1        0.4016
     21 C          64.2868   81.4947   12.7875 C.3     1  UNL1        0.0725
     22 C          63.7381   82.6457   11.9974 C.ar    1  UNL1        0.1233
     23 C          62.8162   83.7101   12.5142 C.ar    1  UNL1        0.0361
     24 C          62.5233   84.6565   11.3879 C.ar    1  UNL1        0.0402
     25 C          61.6777   85.8930   11.3101 C.ar    1  UNL1        0.0402
     26 C          61.5730   86.6499   10.0194 C.ar    1  UNL1        0.1590
     27 C          62.3139   86.1704    8.8065 C.ar    1  UNL1        0.0402
     28 C          63.1595   84.9340    8.8843 C.ar    1  UNL1        0.0405
     29 C          63.2642   84.1770   10.1750 C.ar    1  UNL1        0.1450
     30 O          64.0150   82.9343   10.5517 O.2     1  UNL1       -0.4577
     31 N          60.5265   90.4766    9.9083 N.pl3   1  UNL1       -0.1773
     32 H          60.6477   91.1098    9.1643 H       1  UNL1        0.2780
     33 C          59.4962   90.7483   10.9641 C.1     1  UNL1        0.2552
     34 N          58.4659   91.0200   12.0199 N.1     1  UNL1       -0.1538
@<TRIPOS>BOND
     1    21    22    1
     2    22    23   ar
     3    23    24   ar
     4    24    25   ar
     5    25    26   ar
     6    26    19    1
     7    19    20    2
     8    20    31    1
     9    31    33    1
    10    33    34    3
    11    20     1    1
    12     3     1    1
    13     3     4    1
    14     4     5    1
    15     5     6    1
    16     6     7    1
    17     7     8    1
    18     8    11    1
    19    11    12    1
    20    12    13    2
    21    12    14   am
    22    14    15    1
    23    15    16    1
    24    16    17    1
    25    17    18    1
    26     8     9   am
    27     9    10    2
    28    26    27   ar
    29    27    28   ar
    30    28    29   ar
    31    29    30   ar
    32    30    22   ar
    33    29    24   ar
    34     9     3    1
    35    18    14    1
    36    31    32    1
    37     1     2    1
@<TRIPOS>MOLECULE
*****
 34 37 0 0 0
SMALL
GASTEIGER

@<TRIPOS>ATOM
      1 N          60.5542   87.5559   10.2118 N.pl3   1  UNL1       -0.2560
      2 H          60.0534   87.6130   11.0575 H       1  UNL1        0.2592
      3 C          61.5602   86.4620   10.0082 C.3     1  UNL1        0.2144
      4 C          61.8179   86.0719    8.5829 C.3     1  UNL1        0.0490
      5 C          62.7545   85.0264    8.0541 C.3     1  UNL1        0.0057
      6 C          63.6647   84.1127    8.8201 C.3     1  UNL1        0.0216
      7 C          63.8632   84.0189   10.3039 C.3     1  UNL1        0.0940
      8 N          63.2004   84.8156   11.3883 N.am    1  UNL1       -0.2686
      9 C          62.1754   85.9030   11.2567 C.2     1  UNL1        0.2622
     10 O          61.7033   86.5116   12.5438 O.2     1  UNL1       -0.2712
     11 C          63.6176   84.4808   12.7896 C.3     1  UNL1        0.1794
     12 C          62.6833   83.7297   13.6913 C.2     1  UNL1        0.2459
     13 O          61.9737   84.4470   14.8013 O.2     1  UNL1       -0.2730
     14 N          62.4585   82.2613   13.4829 N.am    1  UNL1       -0.2781
     15 C          63.0942   81.4140   12.4209 C.3     1  UNL1        0.0935
     16 C          62.5872   80.0115   12.5816 C.3     1  UNL1        0.0233
     17 C          61.6380   79.9920   13.7431 C.3     1  UNL1        0.0233
     18 C          61.5586   81.3825   14.3001 C.3     1  UNL1        0.0935
     19 N          60.9368   89.9234    9.2125 N.pl3   1  UNL1       -0.0709
     20 C          60.3111   88.5628    9.1269 C.cat   1  UNL1        0.4016
     21 C          66.8085   92.9521   13.4520 C.3     1  UNL1        0.0725
     22 C          65.5942   92.2703   12.8945 C.ar    1  UNL1        0.1233
     23 C          65.1764   92.2526   11.4540 C.ar    1  UNL1        0.0361
     24 C          63.9086   91.4579   11.3488 C.ar    1  UNL1        0.0402
     25 C          63.0399   91.1042   10.1782 C.ar    1  UNL1        0.0402
     26 C          61.8055   90.2771   10.3831 C.ar    1  UNL1        0.1590
     27 C          61.4397   89.8038   11.7587 C.ar    1  UNL1        0.0402
     28 C          62.3083   90.1575   12.9293 C.ar    1  UNL1        0.0405
     29 C          63.5427   90.9846   12.7243 C.ar    1  UNL1        0.1450
     30 O          64.5845   91.4867   13.6796 O.2     1  UNL1       -0.4577
     31 N          59.4424   88.2091    7.9562 N.pl3   1  UNL1       -0.1773
     32 H          59.0087   87.3263    7.9141 H       1  UNL1        0.2780
     33 C          59.2346   89.2004    6.8499 C.1     1  UNL1        0.2552
     34 N          59.0267   90.1918    5.7436 N.1     1  UNL1       -0.1538
@<TRIPOS>BOND
     1    21    22    1
     2    22    23   ar
     3    23    24   ar
     4    24    25   ar
     5    25    26   ar
     6    26    19    1
     7    19    20    2
     8    20    31    1
     9    31    33    1
    10    33    34    3
    11    20     1    1
    12     3     1    1
    13     3     4    1
    14     4     5    1
    15     5     6    1
    16     6     7    1
    17     7     8    1
    18     8    11    1
    19    11    12    1
    20    12    13    2
    21    12    14   am
    22    14    15    1
    23    15    16    1
    24    16    17    1
    25    17    18    1
    26     8     9   am
    27     9    10    2
    28    26    27   ar
    29    27    28   ar
    30    28    29   ar
    31    29    30   ar
    32    30    22   ar
    33    29    24   ar
    34     9     3    1
    35    18    14    1
    36    31    32    1
    37     1     2    1
@<TRIPOS>MOLECULE
*****
 34 37 0 0 0
SMALL
GASTEIGER

@<TRIPOS>ATOM
      1 N          63.9544   88.2368   13.3932 N.pl3   1  UNL1       -0.2560
      2 H          64.7485   87.6981   13.1731 H       1  UNL1        0.2592
      3 C          63.1521   88.8730   12.2970 C.3     1  UNL1        0.2144
      4 C          63.5620   90.2640   11.9137 C.3     1  UNL1        0.0490
      5 C          62.9672   91.1597   10.8678 C.3     1  UNL1        0.0057
      6 C          61.8153   90.8854    9.9468 C.3     1  UNL1        0.0216
      7 C          60.9740   89.6478    9.8443 C.3     1  UNL1        0.0940
      8 N          61.0767   88.3788   10.6375 N.am    1  UNL1       -0.2686
      9 C          62.0460   88.0339   11.7291 C.2     1  UNL1        0.2622
     10 O          61.8885   86.6697   12.3324 O.2     1  UNL1       -0.2712
     11 C          60.0780   87.3138   10.2937 C.3     1  UNL1        0.1794
     12 C          59.9611   86.8230    8.8810 C.2     1  UNL1        0.2459
     13 O          58.7338   87.1362    8.0774 O.2     1  UNL1       -0.2730
     14 N          61.0714   86.0190    8.2720 N.am    1  UNL1       -0.2781
     15 C          62.3518   85.6293    8.9492 C.3     1  UNL1        0.0935
     16 C          63.1679   84.8330    7.9747 C.3     1  UNL1        0.0233
     17 C          62.3919   84.7305    6.6951 C.3     1  UNL1        0.0233
     18 C          61.0961   85.4635    6.8789 C.3     1  UNL1        0.0935
     19 N          63.4071   87.2296   15.7247 N.pl3   1  UNL1       -0.0709
     20 C          63.5468   88.4215   14.8249 C.cat   1  UNL1        0.4016
     21 C          62.2792   79.8030   13.4449 C.3     1  UNL1        0.0725
     22 C          62.7678   81.1755   13.8020 C.ar    1  UNL1        0.1233
     23 C          61.9369   82.2866   14.3721 C.ar    1  UNL1        0.0361
     24 C          62.8287   83.4757   14.5742 C.ar    1  UNL1        0.0402
     25 C          62.5608   84.8523   15.1061 C.ar    1  UNL1        0.0402
     26 C          63.6750   85.8528   15.1928 C.ar    1  UNL1        0.1590
     27 C          65.0571   85.4766   14.7477 C.ar    1  UNL1        0.0402
     28 C          65.3250   84.0999   14.2158 C.ar    1  UNL1        0.0405
     29 C          64.2108   83.0994   14.1291 C.ar    1  UNL1        0.1450
     30 O          64.1732   81.6779   13.6518 O.2     1  UNL1       -0.4577
     31 N          63.2789   89.7983   15.3568 N.pl3   1  UNL1       -0.1773
     32 H          62.4093   90.0062   15.7689 H       1  UNL1        0.2780
     33 C          64.3360   90.8582   15.2609 C.1     1  UNL1        0.2552
     34 N          65.3931   91.9180   15.1650 N.1     1  UNL1       -0.1538
@<TRIPOS>BOND
     1    21    22    1
     2    22    23   ar
     3    23    24   ar
     4    24    25   ar
     5    25    26   ar
     6    26    19    1
     7    19    20    2
     8    20    31    1
     9    31    33    1
    10    33    34    3
    11    20     1    1
    12     3     1    1
    13     3     4    1
    14     4     5    1
    15     5     6    1
    16     6     7    1
    17     7     8    1
    18     8    11    1
    19    11    12    1
    20    12    13    2
    21    12    14   am
    22    14    15    1
    23    15    16    1
    24    16    17    1
    25    17    18    1
    26     8     9   am
    27     9    10    2
    28    26    27   ar
    29    27    28   ar
    30    28    29   ar
    31    29    30   ar
    32    30    22   ar
    33    29    24   ar
    34     9     3    1
    35    18    14    1
    36    31    32    1
    37     1     2    1
