@<TRIPOS>MOLECULE
*****
 52 55 0 0 0
SMALL
GASTEIGER

@<TRIPOS>ATOM
      1 C          63.6989   90.9410   12.9821 C.3     1  UNL1        0.0760
      2 C          61.8845   89.3899   11.9563 C.2     1  UNL1        0.2429
      3 O          62.9096   88.3098   11.7763 O.2     1  UNL1       -0.2732
      4 N          62.2791   90.7055   12.5592 N.am    1  UNL1       -0.3042
      5 H          61.6063   91.4145   12.6774 H       1  UNL1        0.1494
      6 CA         60.4647   89.1544   11.5335 C.3     1  UNL1        0.1793
      7 N          59.5429   88.2062    7.7917 N.am    1  UNL1       -0.2567
      8 C          59.2059   88.8887    6.4991 C.3     1  UNL1        0.1168
      9 C          59.8353   89.0215    9.0163 C.2     1  UNL1        0.3047
     10 O          59.7908   90.5194    8.9484 O.2     1  UNL1       -0.2526
     11 N          60.1723   88.3391   10.3088 N.am    1  UNL1       -0.2805
     12 H          60.2015   87.3560   10.3534 H       1  UNL1        0.1514
     13 C          59.5874   86.7085    7.8596 C.3     1  UNL1        0.1413
     14 C          62.4308   84.9645    9.8443 C.ar    1  UNL1        0.0875
     15 N          61.0873   85.6293    9.7912 N.ar    1  UNL1       -0.2453
     16 C          60.8179   86.0169    8.3675 C.ar    1  UNL1        0.0858
     17 C          61.9950   85.5917    7.5406 C.ar    1  UNL1        0.0530
     18 S          62.9919   84.9412    8.4533 S.2     1  UNL1       -0.0705
     19 C          62.7380   84.9618   12.4242 C.3     1  UNL1        0.0069
     20 C          63.0966   84.4187   11.0727 C.3     1  UNL1        0.0465
     21 C          64.1208   83.3298   10.9497 C.3     1  UNL1        0.0069
     22 C          59.3374   89.7343   12.3352 C.3     1  UNL1        0.1661
     23 O          58.6639   90.9948   11.8797 O.3     1  UNL1       -0.3798
     24 H          59.2923   91.7322   11.9263 H       1  UNL1        0.2105
     25 C          64.7278   91.3395   11.9660 C.3     1  UNL1        0.0216
     26 C          64.8658   92.7777   11.5627 C.3     1  UNL1        0.0217
     27 C          66.0688   93.5647   11.9910 C.3     1  UNL1        0.0792
     28 N          67.2093   92.8758   12.6800 N.am    1  UNL1       -0.2720
     29 C          68.2634   92.1792   11.8714 C.2     1  UNL1        0.4019
     30 O          68.1769   92.1715   10.3739 O.2     1  UNL1       -0.2264
     31 H          67.2660   92.8808   13.6628 H       1  UNL1        0.1527
     32 O          69.4039   91.4903   12.5604 O.3     1  UNL1       -0.4291
     33 C          69.8838   91.9843   13.8928 C.3     1  UNL1        0.2447
     34 C          68.8974   92.4785   14.9091 C.ar    1  UNL1        0.0714
     35 C          68.9673   93.7848   15.6431 C.ar    1  UNL1        0.1053
     36 N          67.7811   93.8668   16.5575 N.ar    1  UNL1       -0.2350
     37 C          66.9780   92.6112   16.3887 C.ar    1  UNL1        0.1343
     38 S          67.6680   91.7532   15.3699 S.2     1  UNL1       -0.0652
     39 C          66.1313   95.0405   11.7304 C.3     1  UNL1        0.0460
     40 C          66.1485   95.5531   10.3207 C.ar    1  UNL1       -0.0205
     41 C          67.3302   95.2808    9.4380 C.ar    1  UNL1       -0.0042
     42 C          67.3473   95.7934    8.0284 C.ar    1  UNL1       -0.0003
     43 C          66.1827   96.5784    7.5016 C.ar    1  UNL1       -0.0000
     44 C          65.0010   96.8507    8.3844 C.ar    1  UNL1       -0.0003
     45 C          64.9839   96.3381    9.7939 C.ar    1  UNL1       -0.0042
     46 C          64.0898   90.7778   14.4211 C.3     1  UNL1        0.0459
     47 C          63.9034   89.4552   15.1035 C.ar    1  UNL1       -0.0205
     48 C          64.4578   88.2067   14.4837 C.ar    1  UNL1       -0.0042
     49 C          64.2714   86.8840   15.1661 C.ar    1  UNL1       -0.0003
     50 C          63.5307   86.8098   16.4685 C.ar    1  UNL1       -0.0000
     51 C          62.9765   88.0582   17.0882 C.ar    1  UNL1       -0.0003
     52 C          63.1628   89.3809   16.4058 C.ar    1  UNL1       -0.0042
@<TRIPOS>BOND
     1    19    20    1
     2    20    21    1
     3    20    14    1
     4    14    15   ar
     5    15    16   ar
     6    16    13    1
     7    13     7    1
     8     7     8    1
     9     7     9   am
    10     9    10    2
    11     9    11   am
    12    11     6    1
    13     6    22    1
    14    22    23    1
    15     6     2    1
    16     2     3    2
    17     2     4   am
    18     4     1    1
    19     1    25    1
    20    25    26    1
    21    27    26    1
    22    27    39    1
    23    39    40    1
    24    40    41   ar
    25    41    42   ar
    26    42    43   ar
    27    43    44   ar
    28    44    45   ar
    29    27    28    1
    30    28    29   am
    31    29    30    2
    32    29    32    1
    33    32    33    1
    34    33    34    1
    35    34    35   ar
    36    35    36   ar
    37    36    37   ar
    38    37    38   ar
    39     1    46    1
    40    46    47    1
    41    47    48   ar
    42    48    49   ar
    43    49    50   ar
    44    50    51   ar
    45    51    52   ar
    46    16    17   ar
    47    17    18   ar
    48    18    14   ar
    49    45    40   ar
    50    38    34   ar
    51    52    47   ar
    52    11    12    1
    53    23    24    1
    54     4     5    1
    55    28    31    1
@<TRIPOS>MOLECULE
*****
 52 55 0 0 0
SMALL
GASTEIGER

@<TRIPOS>ATOM
      1 C          63.7479   90.5150   13.3622 C.3     1  UNL1        0.0760
      2 C          61.9083   89.7218   11.7078 C.2     1  UNL1        0.2429
      3 O          62.8749   89.8561   10.5686 O.2     1  UNL1       -0.2732
      4 N          62.3448   90.0513   13.1046 N.am    1  UNL1       -0.3042
      5 H          61.7104   89.9632   13.8522 H       1  UNL1        0.1494
      6 CA         60.5053   89.2581   11.4502 C.3     1  UNL1        0.1793
      7 N          59.5911   88.1336    7.7556 N.am    1  UNL1       -0.2567
      8 C          59.2691   88.7540    6.4284 C.3     1  UNL1        0.1168
      9 C          59.8872   89.0060    8.9393 C.2     1  UNL1        0.3047
     10 O          59.8613   90.4990    8.7958 O.2     1  UNL1       -0.2526
     11 N          60.2091   88.3856   10.2665 N.am    1  UNL1       -0.2805
     12 H          60.2261   87.4058   10.3607 H       1  UNL1        0.1514
     13 C          59.6169   86.6407    7.8991 C.3     1  UNL1        0.1413
     14 C          62.4819   84.9395    9.8899 C.ar    1  UNL1        0.0875
     15 N          61.1412   85.6100    9.8381 N.ar    1  UNL1       -0.2453
     16 C          60.8516   85.9574    8.4079 C.ar    1  UNL1        0.0858
     17 C          62.0134   85.5015    7.5758 C.ar    1  UNL1        0.0530
     18 S          63.0210   84.8724    8.4917 S.2     1  UNL1       -0.0705
     19 C          64.3104   83.4665   11.0021 C.3     1  UNL1        0.0069
     20 C          63.1639   84.4261   11.1233 C.3     1  UNL1        0.0465
     21 C          62.6995   84.8723   12.4780 C.3     1  UNL1        0.0069
     22 C          59.3983   89.6669   12.3762 C.3     1  UNL1        0.1661
     23 O          58.5655   90.8744   12.0625 O.3     1  UNL1       -0.3798
     24 H          59.1186   91.6698   12.1097 H       1  UNL1        0.2105
     25 C          64.1916   91.8651   12.8823 C.3     1  UNL1        0.0216
     26 C          64.9472   91.9917   11.5928 C.3     1  UNL1        0.0217
     27 C          66.3918   92.3955   11.6065 C.3     1  UNL1        0.0792
     28 N          66.8589   93.5393   10.7558 N.am    1  UNL1       -0.2720
     29 C          67.6927   93.2759    9.5370 C.2     1  UNL1        0.4019
     30 O          68.0593   91.8688    9.1689 O.2     1  UNL1       -0.2264
     31 H          66.6182   94.4628   10.9974 H       1  UNL1        0.1527
     32 O          68.1597   94.4196    8.6863 O.3     1  UNL1       -0.4291
     33 C          67.9139   95.8319    9.1277 C.3     1  UNL1        0.2447
     34 C          66.5600   96.2353    9.6318 C.ar    1  UNL1        0.0714
     35 C          66.1875   96.4724   11.0653 C.ar    1  UNL1        0.1053
     36 N          64.7381   96.8560   11.1104 N.ar    1  UNL1       -0.2350
     37 C          64.2147   96.8560    9.7047 C.ar    1  UNL1        0.1343
     38 S          65.3407   96.4723    8.7909 S.2     1  UNL1       -0.0652
     39 C          67.3693   91.6557   12.4709 C.3     1  UNL1        0.0460
     40 C          67.7168   92.1835   13.8313 C.ar    1  UNL1       -0.0205
     41 C          66.6292   92.4828   14.8200 C.ar    1  UNL1       -0.0042
     42 C          66.9767   93.0106   16.1803 C.ar    1  UNL1       -0.0003
     43 C          68.4118   93.2391   16.5520 C.ar    1  UNL1       -0.0000
     44 C          69.4994   92.9399   15.5633 C.ar    1  UNL1       -0.0003
     45 C          69.1519   92.4121   14.2030 C.ar    1  UNL1       -0.0042
     46 C          64.7073   89.6285   14.0997 C.3     1  UNL1        0.0459
     47 C          64.1894   88.5859   15.0455 C.ar    1  UNL1       -0.0205
     48 C          64.4542   87.1336   14.7791 C.ar    1  UNL1       -0.0042
     49 C          63.9363   86.0910   15.7249 C.ar    1  UNL1       -0.0003
     50 C          63.1536   86.5006   16.9373 C.ar    1  UNL1       -0.0000
     51 C          62.8889   87.9528   17.2037 C.ar    1  UNL1       -0.0003
     52 C          63.4068   88.9954   16.2579 C.ar    1  UNL1       -0.0042
@<TRIPOS>BOND
     1    19    20    1
     2    20    21    1
     3    20    14    1
     4    14    15   ar
     5    15    16   ar
     6    16    13    1
     7    13     7    1
     8     7     8    1
     9     7     9   am
    10     9    10    2
    11     9    11   am
    12    11     6    1
    13     6    22    1
    14    22    23    1
    15     6     2    1
    16     2     3    2
    17     2     4   am
    18     4     1    1
    19     1    25    1
    20    25    26    1
    21    27    26    1
    22    27    39    1
    23    39    40    1
    24    40    41   ar
    25    41    42   ar
    26    42    43   ar
    27    43    44   ar
    28    44    45   ar
    29    27    28    1
    30    28    29   am
    31    29    30    2
    32    29    32    1
    33    32    33    1
    34    33    34    1
    35    34    35   ar
    36    35    36   ar
    37    36    37   ar
    38    37    38   ar
    39     1    46    1
    40    46    47    1
    41    47    48   ar
    42    48    49   ar
    43    49    50   ar
    44    50    51   ar
    45    51    52   ar
    46    16    17   ar
    47    17    18   ar
    48    18    14   ar
    49    45    40   ar
    50    38    34   ar
    51    52    47   ar
    52    11    12    1
    53    23    24    1
    54     4     5    1
    55    28    31    1
@<TRIPOS>MOLECULE
*****
 52 55 0 0 0
SMALL
GASTEIGER

@<TRIPOS>ATOM
      1 C          63.2803   90.1812   13.9811 C.3     1  UNL1        0.0760
      2 C          61.6049   89.0275   12.3649 C.2     1  UNL1        0.2429
      3 O          62.6925   88.1080   11.8939 O.2     1  UNL1       -0.2732
      4 N          61.8988   90.0642   13.4085 N.am    1  UNL1       -0.3042
      5 H          61.1851   90.6677   13.7176 H       1  UNL1        0.1494
      6 CA         60.2235   88.9104   11.7922 C.3     1  UNL1        0.1793
      7 N          59.6045   88.3967    7.9060 N.am    1  UNL1       -0.2567
      8 C          59.4015   89.2236    6.6711 C.3     1  UNL1        0.1168
      9 C          59.8125   89.0670    9.2316 C.2     1  UNL1        0.3047
     10 O          59.8175   90.5643    9.3224 O.2     1  UNL1       -0.2526
     11 N          60.0155   88.2401   10.4665 N.am    1  UNL1       -0.2805
     12 H          60.0122   87.2574   10.4070 H       1  UNL1        0.1514
     13 C          59.5995   86.8995    7.8152 C.3     1  UNL1        0.1413
     14 C          62.4128   84.9294    9.6235 C.ar    1  UNL1        0.0875
     15 N          61.1154   85.6817    9.6495 N.ar    1  UNL1       -0.2453
     16 C          60.8042   86.1178    8.2484 C.ar    1  UNL1        0.0858
     17 C          61.9094   85.6349    7.3564 C.ar    1  UNL1        0.0530
     18 S          62.9035   84.9004    8.2062 S.2     1  UNL1       -0.0705
     19 C          64.1671   83.2811   10.6011 C.3     1  UNL1        0.0069
     20 C          63.0990   84.3140   10.8069 C.3     1  UNL1        0.0465
     21 C          62.7171   84.7314   12.1960 C.3     1  UNL1        0.0069
     22 C          59.0501   89.4637   12.5452 C.3     1  UNL1        0.1661
     23 O          58.3424   88.6153   13.5598 O.3     1  UNL1       -0.3798
     24 H          57.9119   87.8693   13.1137 H       1  UNL1        0.2105
     25 C          64.4118   90.6569   13.1189 C.3     1  UNL1        0.0216
     26 C          64.2778   91.9334   12.3427 C.3     1  UNL1        0.0217
     27 C          65.5007   92.7237   11.9819 C.3     1  UNL1        0.0792
     28 N          65.3631   94.0271   11.2524 N.am    1  UNL1       -0.2720
     29 C          65.8316   95.2992   11.8948 C.2     1  UNL1        0.4019
     30 O          66.4376   95.2677   13.2665 O.2     1  UNL1       -0.2264
     31 H          64.9654   94.0477   10.3521 H       1  UNL1        0.1527
     32 O          65.6940   96.6026   11.1653 O.3     1  UNL1       -0.4291
     33 C          66.4954   96.8548    9.9227 C.3     1  UNL1        0.2447
     34 C          67.0374   95.7007    9.1325 C.ar    1  UNL1        0.0714
     35 C          66.7894   95.4346    7.6773 C.ar    1  UNL1        0.1053
     36 N          67.5212   94.1795    7.3043 N.ar    1  UNL1       -0.2350
     37 C          68.2215   93.6699    8.5290 C.ar    1  UNL1        0.1343
     38 S          67.9224   94.6100    9.6589 S.2     1  UNL1       -0.0652
     39 C          66.8611   92.2105   12.3506 C.3     1  UNL1        0.0460
     40 C          67.3659   92.3652   13.7547 C.ar    1  UNL1       -0.0205
     41 C          66.3969   92.5612   14.8828 C.ar    1  UNL1       -0.0042
     42 C          66.9017   92.7158   16.2867 C.ar    1  UNL1       -0.0003
     43 C          68.3755   92.6745   16.5627 C.ar    1  UNL1       -0.0000
     44 C          69.3445   92.4786   15.4346 C.ar    1  UNL1       -0.0003
     45 C          68.8397   92.3239   14.0306 C.ar    1  UNL1       -0.0042
     46 C          63.5302   89.8226   15.4161 C.3     1  UNL1        0.0459
     47 C          63.5416   88.3834   15.8384 C.ar    1  UNL1       -0.0205
     48 C          62.8399   87.9654   17.0967 C.ar    1  UNL1       -0.0042
     49 C          62.8513   86.5261   17.5190 C.ar    1  UNL1       -0.0003
     50 C          63.5642   85.5048   16.6831 C.ar    1  UNL1       -0.0000
     51 C          64.2658   85.9228   15.4249 C.ar    1  UNL1       -0.0003
     52 C          64.2545   87.3621   15.0026 C.ar    1  UNL1       -0.0042
@<TRIPOS>BOND
     1    19    20    1
     2    20    21    1
     3    20    14    1
     4    14    15   ar
     5    15    16   ar
     6    16    13    1
     7    13     7    1
     8     7     8    1
     9     7     9   am
    10     9    10    2
    11     9    11   am
    12    11     6    1
    13     6    22    1
    14    22    23    1
    15     6     2    1
    16     2     3    2
    17     2     4   am
    18     4     1    1
    19     1    25    1
    20    25    26    1
    21    27    26    1
    22    27    39    1
    23    39    40    1
    24    40    41   ar
    25    41    42   ar
    26    42    43   ar
    27    43    44   ar
    28    44    45   ar
    29    27    28    1
    30    28    29   am
    31    29    30    2
    32    29    32    1
    33    32    33    1
    34    33    34    1
    35    34    35   ar
    36    35    36   ar
    37    36    37   ar
    38    37    38   ar
    39     1    46    1
    40    46    47    1
    41    47    48   ar
    42    48    49   ar
    43    49    50   ar
    44    50    51   ar
    45    51    52   ar
    46    16    17   ar
    47    17    18   ar
    48    18    14   ar
    49    45    40   ar
    50    38    34   ar
    51    52    47   ar
    52    11    12    1
    53    23    24    1
    54     4     5    1
    55    28    31    1
@<TRIPOS>MOLECULE
*****
 52 55 0 0 0
SMALL
GASTEIGER

@<TRIPOS>ATOM
      1 C          63.8811   89.6911   13.3535 C.3     1  UNL1        0.0760
      2 C          61.9411   88.9894   11.7742 C.2     1  UNL1        0.2429
      3 O          61.1383   90.1692   12.2361 O.2     1  UNL1       -0.2732
      4 N          63.3126   88.7503   12.3329 N.am    1  UNL1       -0.3042
      5 H          63.8395   87.9759   12.0297 H       1  UNL1        0.1494
      6 CA         61.3726   88.0485   10.7536 C.3     1  UNL1        0.1793
      7 N          62.7254   85.0645    8.5140 N.am    1  UNL1       -0.2567
      8 C          62.4965   84.4729    7.1548 C.3     1  UNL1        0.1168
      9 C          61.9346   86.2607    8.9542 C.2     1  UNL1        0.3047
     10 O          60.9149   86.8653    8.0351 O.2     1  UNL1       -0.2526
     11 N          62.1635   86.8523   10.3135 N.am    1  UNL1       -0.2805
     12 H          62.8327   86.4555   10.9167 H       1  UNL1        0.1514
     13 C          63.7451   84.4600    9.4331 C.3     1  UNL1        0.1413
     14 C          62.5866   82.2422   12.4005 C.ar    1  UNL1        0.0875
     15 N          62.9567   82.4099   10.9566 N.ar    1  UNL1       -0.2453
     16 C          63.3141   83.8496   10.7338 C.ar    1  UNL1        0.0858
     17 C          63.1649   84.5717   12.0401 C.ar    1  UNL1        0.0530
     18 S          62.7152   83.5783   13.0702 S.2     1  UNL1       -0.0705
     19 C          61.2453   80.9986   14.2456 C.3     1  UNL1        0.0069
     20 C          62.1623   80.9631   13.0591 C.3     1  UNL1        0.0465
     21 C          62.6551   79.6483   12.5313 C.3     1  UNL1        0.0069
     22 C          60.0133   88.3039   10.1732 C.3     1  UNL1        0.1661
     23 O          59.8605   89.2215    8.9965 O.3     1  UNL1       -0.3798
     24 H          60.0976   90.1250    9.2580 H       1  UNL1        0.2105
     25 C          63.6832   91.1703   13.2025 C.3     1  UNL1        0.0216
     26 C          64.1005   91.8573   11.9361 C.3     1  UNL1        0.0217
     27 C          65.4206   92.5666   11.8675 C.3     1  UNL1        0.0792
     28 N          65.4879   93.9791   11.3672 N.am    1  UNL1       -0.2720
     29 C          65.9335   95.0792   12.2844 C.2     1  UNL1        0.4019
     30 O          66.3118   94.7667   13.7019 O.2     1  UNL1       -0.2264
     31 H          65.2396   94.1841   10.4368 H       1  UNL1        0.1527
     32 O          66.0008   96.4917   11.7841 O.3     1  UNL1       -0.4291
     33 C          66.9245   96.8446   10.6563 C.3     1  UNL1        0.2447
     34 C          66.4235   96.8257    9.2426 C.ar    1  UNL1        0.0714
     35 C          67.2724   96.7746    8.0069 C.ar    1  UNL1        0.1053
     36 N          66.3592   96.7719    6.8169 N.ar    1  UNL1       -0.2350
     37 C          64.9459   96.8213    7.3171 C.ar    1  UNL1        0.1343
     38 S          64.9857   96.8546    8.8162 S.2     1  UNL1       -0.0652
     39 C          66.6732   91.8633   12.2991 C.3     1  UNL1        0.0460
     40 C          67.2257   92.0921   13.6748 C.ar    1  UNL1       -0.0205
     41 C          68.7095   92.1439   13.8880 C.ar    1  UNL1       -0.0042
     42 C          69.2620   92.3727   15.2636 C.ar    1  UNL1       -0.0003
     43 C          68.3307   92.5497   16.4260 C.ar    1  UNL1       -0.0000
     44 C          66.8468   92.4978   16.2128 C.ar    1  UNL1       -0.0003
     45 C          66.2944   92.2690   14.8372 C.ar    1  UNL1       -0.0042
     46 C          64.6476   89.1527   14.5252 C.3     1  UNL1        0.0459
     47 C          64.0320   88.1077   15.4078 C.ar    1  UNL1       -0.0205
     48 C          64.2342   86.6533   15.1014 C.ar    1  UNL1       -0.0042
     49 C          63.6186   85.6083   15.9840 C.ar    1  UNL1       -0.0003
     50 C          62.8009   86.0177   17.1731 C.ar    1  UNL1       -0.0000
     51 C          62.5987   87.4721   17.4794 C.ar    1  UNL1       -0.0003
     52 C          63.2143   88.5171   16.5968 C.ar    1  UNL1       -0.0042
@<TRIPOS>BOND
     1    19    20    1
     2    20    21    1
     3    20    14    1
     4    14    15   ar
     5    15    16   ar
     6    16    13    1
     7    13     7    1
     8     7     8    1
     9     7     9   am
    10     9    10    2
    11     9    11   am
    12    11     6    1
    13     6    22    1
    14    22    23    1
    15     6     2    1
    16     2     3    2
    17     2     4   am
    18     4     1    1
    19     1    25    1
    20    25    26    1
    21    27    26    1
    22    27    39    1
    23    39    40    1
    24    40    41   ar
    25    41    42   ar
    26    42    43   ar
    27    43    44   ar
    28    44    45   ar
    29    27    28    1
    30    28    29   am
    31    29    30    2
    32    29    32    1
    33    32    33    1
    34    33    34    1
    35    34    35   ar
    36    35    36   ar
    37    36    37   ar
    38    37    38   ar
    39     1    46    1
    40    46    47    1
    41    47    48   ar
    42    48    49   ar
    43    49    50   ar
    44    50    51   ar
    45    51    52   ar
    46    16    17   ar
    47    17    18   ar
    48    18    14   ar
    49    45    40   ar
    50    38    34   ar
    51    52    47   ar
    52    11    12    1
    53    23    24    1
    54     4     5    1
    55    28    31    1
@<TRIPOS>MOLECULE
*****
 52 55 0 0 0
SMALL
GASTEIGER

@<TRIPOS>ATOM
      1 C          63.1372   86.4941   12.4705 C.3     1  UNL1        0.0760
      2 C          63.8450   87.9522   14.5010 C.2     1  UNL1        0.2429
      3 O          63.8500   86.7331   15.3748 O.2     1  UNL1       -0.2732
      4 N          63.4886   87.8328   13.0489 N.am    1  UNL1       -0.3042
      5 H          63.4853   88.6330   12.4754 H       1  UNL1        0.1494
      6 CA         64.1965   89.2909   15.0794 C.3     1  UNL1        0.1793
      7 N          66.6939   92.2962   14.3855 N.am    1  UNL1       -0.2567
      8 C          67.0210   93.6502   14.9419 C.3     1  UNL1        0.1168
      9 C          65.6088   91.4705   15.0106 C.2     1  UNL1        0.3047
     10 O          64.8508   91.9989   16.1923 O.2     1  UNL1       -0.2526
     11 N          65.2816   90.1165   14.4542 N.am    1  UNL1       -0.2805
     12 H          65.7791   89.7697   13.6786 H       1  UNL1        0.1514
     13 C          67.4518   91.7678   13.2038 C.3     1  UNL1        0.1413
     14 C          67.0117   94.2187   10.2264 C.ar    1  UNL1        0.0875
     15 N          66.8118   93.8609   11.6693 N.ar    1  UNL1       -0.2453
     16 C          67.4232   92.5109   11.9011 C.ar    1  UNL1        0.0858
     17 C          68.0009   92.0344   10.6014 C.ar    1  UNL1        0.0530
     18 S          67.7467   93.0899    9.5664 S.2     1  UNL1       -0.0705
     19 C          67.0121   95.8034    8.1676 C.3     1  UNL1        0.0069
     20 C          66.5566   95.4834    9.5605 C.3     1  UNL1        0.0465
     21 C          65.6460   96.4281   10.2874 C.3     1  UNL1        0.0069
     22 C          63.4628   89.8040   16.2829 C.3     1  UNL1        0.1661
     23 O          63.0894   88.8641   17.3907 O.3     1  UNL1       -0.3798
     24 H          62.4386   88.2228   17.0651 H       1  UNL1        0.2105
     25 C          62.3709   86.4108   11.1837 C.3     1  UNL1        0.0216
     26 C          60.8971   86.6894   11.1691 C.3     1  UNL1        0.0217
     27 C          60.3962   88.0593   10.8187 C.3     1  UNL1        0.0792
     28 N          59.5937   88.2674    9.5687 N.am    1  UNL1       -0.2720
     29 C          60.1308   87.8044    8.2468 C.2     1  UNL1        0.4019
     30 O          61.4703   87.1333    8.1751 O.2     1  UNL1       -0.2264
     31 H          58.7145   88.7078    9.6158 H       1  UNL1        0.1527
     32 O          59.3282   88.0124    6.9968 O.3     1  UNL1       -0.4291
     33 C          58.4102   89.1932    6.8827 C.3     1  UNL1        0.2447
     34 C          58.7080   90.2821    5.8950 C.ar    1  UNL1        0.0714
     35 C          57.6948   91.1360    5.1919 C.ar    1  UNL1        0.1053
     36 N          58.4319   92.0899    4.2993 N.ar    1  UNL1       -0.2350
     37 C          59.9006   91.8257    4.4508 C.ar    1  UNL1        0.1343
     38 S          60.0713   90.7084    5.4370 S.2     1  UNL1       -0.0652
     39 C          60.6978   89.2210   11.7184 C.3     1  UNL1        0.0460
     40 C          61.8355   90.1439   11.3958 C.ar    1  UNL1       -0.0205
     41 C          62.5634   90.8516   12.5000 C.ar    1  UNL1       -0.0042
     42 C          63.7010   91.7745   12.1774 C.ar    1  UNL1       -0.0003
     43 C          64.1106   91.9897   10.7505 C.ar    1  UNL1       -0.0000
     44 C          63.3827   91.2820    9.6463 C.ar    1  UNL1       -0.0003
     45 C          62.2452   90.3591    9.9690 C.ar    1  UNL1       -0.0042
     46 C          63.5520   85.2387   13.1791 C.3     1  UNL1        0.0459
     47 C          63.4329   83.9130   12.4876 C.ar    1  UNL1       -0.0205
     48 C          64.1199   83.6883   11.1732 C.ar    1  UNL1       -0.0042
     49 C          64.0008   82.3625   10.4817 C.ar    1  UNL1       -0.0003
     50 C          63.1946   81.2614   11.1046 C.ar    1  UNL1       -0.0000
     51 C          62.5077   81.4862   12.4189 C.ar    1  UNL1       -0.0003
     52 C          62.6268   82.8120   13.1104 C.ar    1  UNL1       -0.0042
@<TRIPOS>BOND
     1    19    20    1
     2    20    21    1
     3    20    14    1
     4    14    15   ar
     5    15    16   ar
     6    16    13    1
     7    13     7    1
     8     7     8    1
     9     7     9   am
    10     9    10    2
    11     9    11   am
    12    11     6    1
    13     6    22    1
    14    22    23    1
    15     6     2    1
    16     2     3    2
    17     2     4   am
    18     4     1    1
    19     1    25    1
    20    25    26    1
    21    27    26    1
    22    27    39    1
    23    39    40    1
    24    40    41   ar
    25    41    42   ar
    26    42    43   ar
    27    43    44   ar
    28    44    45   ar
    29    27    28    1
    30    28    29   am
    31    29    30    2
    32    29    32    1
    33    32    33    1
    34    33    34    1
    35    34    35   ar
    36    35    36   ar
    37    36    37   ar
    38    37    38   ar
    39     1    46    1
    40    46    47    1
    41    47    48   ar
    42    48    49   ar
    43    49    50   ar
    44    50    51   ar
    45    51    52   ar
    46    16    17   ar
    47    17    18   ar
    48    18    14   ar
    49    45    40   ar
    50    38    34   ar
    51    52    47   ar
    52    11    12    1
    53    23    24    1
    54     4     5    1
    55    28    31    1
@<TRIPOS>MOLECULE
*****
 52 55 0 0 0
SMALL
GASTEIGER

@<TRIPOS>ATOM
      1 C          62.2744   88.8029   11.0357 C.3     1  UNL1        0.0760
      2 C          60.3928   88.4674    9.2758 C.2     1  UNL1        0.2429
      3 O          59.3636   88.5223   10.3657 O.2     1  UNL1       -0.2732
      4 N          61.8482   88.6077    9.6108 N.am    1  UNL1       -0.3042
      5 H          62.5237   88.5716    8.8955 H       1  UNL1        0.1494
      6 CA         59.9666   88.2721    7.8510 C.3     1  UNL1        0.1793
      7 N          58.8237   91.1133    5.3268 N.am    1  UNL1       -0.2567
      8 C          57.5600   91.6605    4.7321 C.3     1  UNL1        0.1168
      9 C          58.7633   89.9663    6.2915 C.2     1  UNL1        0.3047
     10 O          57.4391   89.3665    6.6617 O.2     1  UNL1       -0.2526
     11 N          60.0270   89.4191    6.8862 N.am    1  UNL1       -0.2805
     12 H          60.8961   89.8128    6.6433 H       1  UNL1        0.1514
     13 C          60.1478   91.7130    4.9567 C.3     1  UNL1        0.1413
     14 C          59.9319   93.3767    1.4565 C.ar    1  UNL1        0.0875
     15 N          59.2892   92.9256    2.7345 N.ar    1  UNL1       -0.2453
     16 C          60.3498   92.3001    3.5911 C.ar    1  UNL1        0.0858
     17 C          61.6481   92.3646    2.8425 C.ar    1  UNL1        0.0530
     18 S          61.3898   93.0300    1.5232 S.2     1  UNL1       -0.0705
     19 C          59.2838   95.5496    0.1881 C.3     1  UNL1        0.0069
     20 C          59.2385   94.0554    0.3126 C.3     1  UNL1        0.0465
     21 C          58.4997   93.2400   -0.7069 C.3     1  UNL1        0.0069
     22 C          59.4800   86.9299    7.3909 C.3     1  UNL1        0.1661
     23 O          58.0958   86.4724    7.7443 O.3     1  UNL1       -0.3798
     24 H          58.0316   86.3481    8.7041 H       1  UNL1        0.2105
     25 C          62.7597   87.6337   11.8403 C.3     1  UNL1        0.0216
     26 C          62.3758   86.2391   11.4434 C.3     1  UNL1        0.0217
     27 C          62.7955   85.0754   12.2919 C.3     1  UNL1        0.0792
     28 N          62.8309   85.2104   13.7854 N.am    1  UNL1       -0.2720
     29 C          64.0850   84.8789   14.5388 C.2     1  UNL1        0.4019
     30 O          65.3034   84.4125   13.7987 O.2     1  UNL1       -0.2264
     31 H          62.0312   85.5166   14.2711 H       1  UNL1        0.1527
     32 O          64.1205   85.0139   16.0323 O.3     1  UNL1       -0.4291
     33 C          63.2984   86.0700   16.7096 C.3     1  UNL1        0.2447
     34 C          63.4730   87.5118   16.3346 C.ar    1  UNL1        0.0714
     35 C          64.2393   88.0290   15.1533 C.ar    1  UNL1        0.1053
     36 N          64.1519   89.5264   15.1636 N.ar    1  UNL1       -0.2350
     37 C          63.3316   89.9347   16.3512 C.ar    1  UNL1        0.1343
     38 S          62.9121   88.6896   17.0749 S.2     1  UNL1       -0.0652
     39 C          63.1796   83.7769   11.6469 C.3     1  UNL1        0.0460
     40 C          62.7650   82.4776   12.2715 C.ar    1  UNL1       -0.0205
     41 C          62.0129   82.4756   13.5693 C.ar    1  UNL1       -0.0042
     42 C          61.5984   81.1764   14.1939 C.ar    1  UNL1       -0.0003
     43 C          61.9360   79.8792   13.5207 C.ar    1  UNL1       -0.0000
     44 C          62.6880   79.8811   12.2229 C.ar    1  UNL1       -0.0003
     45 C          63.1026   81.1803   11.5983 C.ar    1  UNL1       -0.0042
     46 C          62.2152   90.1674   11.6560 C.3     1  UNL1        0.0459
     47 C          63.4293   91.0483   11.6477 C.ar    1  UNL1       -0.0205
     48 C          64.2002   91.2748   12.9143 C.ar    1  UNL1       -0.0042
     49 C          65.4143   92.1557   12.9060 C.ar    1  UNL1       -0.0003
     50 C          65.8574   92.8101   11.6310 C.ar    1  UNL1       -0.0000
     51 C          65.0864   92.5836   10.3645 C.ar    1  UNL1       -0.0003
     52 C          63.8724   91.7027   10.3728 C.ar    1  UNL1       -0.0042
@<TRIPOS>BOND
     1    19    20    1
     2    20    21    1
     3    20    14    1
     4    14    15   ar
     5    15    16   ar
     6    16    13    1
     7    13     7    1
     8     7     8    1
     9     7     9   am
    10     9    10    2
    11     9    11   am
    12    11     6    1
    13     6    22    1
    14    22    23    1
    15     6     2    1
    16     2     3    2
    17     2     4   am
    18     4     1    1
    19     1    25    1
    20    25    26    1
    21    27    26    1
    22    27    39    1
    23    39    40    1
    24    40    41   ar
    25    41    42   ar
    26    42    43   ar
    27    43    44   ar
    28    44    45   ar
    29    27    28    1
    30    28    29   am
    31    29    30    2
    32    29    32    1
    33    32    33    1
    34    33    34    1
    35    34    35   ar
    36    35    36   ar
    37    36    37   ar
    38    37    38   ar
    39     1    46    1
    40    46    47    1
    41    47    48   ar
    42    48    49   ar
    43    49    50   ar
    44    50    51   ar
    45    51    52   ar
    46    16    17   ar
    47    17    18   ar
    48    18    14   ar
    49    45    40   ar
    50    38    34   ar
    51    52    47   ar
    52    11    12    1
    53    23    24    1
    54     4     5    1
    55    28    31    1
@<TRIPOS>MOLECULE
*****
 52 55 0 0 0
SMALL
GASTEIGER

@<TRIPOS>ATOM
      1 C          63.4283   85.2659   12.8511 C.3     1  UNL1        0.0760
      2 C          64.3087   87.0035   14.5703 C.2     1  UNL1        0.2429
      3 O          65.4198   86.0687   14.9463 O.2     1  UNL1       -0.2732
      4 N          63.3129   86.6022   13.5227 N.am    1  UNL1       -0.3042
      5 H          62.5837   87.2158   13.2759 H       1  UNL1        0.1494
      6 CA         64.1933   88.3398   15.2419 C.3     1  UNL1        0.1793
      7 N          65.9752   91.8856   15.1914 N.am    1  UNL1       -0.2567
      8 C          65.8931   93.2060   15.8983 C.3     1  UNL1        0.1168
      9 C          65.0432   90.7730   15.5701 C.2     1  UNL1        0.3047
     10 O          64.0291   90.9807   16.6556 O.2     1  UNL1       -0.2526
     11 N          65.1254   89.4525   14.8632 N.am    1  UNL1       -0.2805
     12 H          65.7910   89.3161   14.1507 H       1  UNL1        0.1514
     13 C          66.9893   91.6778   14.1059 C.3     1  UNL1        0.1413
     14 C          67.3548   93.3546   10.6245 C.ar    1  UNL1        0.0875
     15 N          67.6843   92.2551   11.5902 N.ar    1  UNL1       -0.2453
     16 C          66.9482   92.5253   12.8689 C.ar    1  UNL1        0.0858
     17 C          66.1639   93.7918   12.6935 C.ar    1  UNL1        0.0530
     18 S          66.4151   94.3044   11.3064 S.2     1  UNL1       -0.0705
     19 C          68.6672   92.3648    8.6125 C.3     1  UNL1        0.0069
     20 C          67.8739   93.4820    9.2229 C.3     1  UNL1        0.0465
     21 C          67.5997   94.7265    8.4318 C.3     1  UNL1        0.0069
     22 C          63.1460   88.5635   16.2921 C.3     1  UNL1        0.1661
     23 O          61.9368   89.3945   15.9804 O.3     1  UNL1       -0.3798
     24 H          62.2073   90.3126   15.8228 H       1  UNL1        0.2105
     25 C          63.0515   85.1173   11.4069 C.3     1  UNL1        0.0216
     26 C          61.6819   85.5172   10.9442 C.3     1  UNL1        0.0217
     27 C          61.4254   86.9226   10.4868 C.3     1  UNL1        0.0792
     28 N          61.2324   87.2130    9.0278 N.am    1  UNL1       -0.2720
     29 C          59.9608   87.8506    8.5518 C.2     1  UNL1        0.4019
     30 O          58.8822   88.1977    9.5347 O.2     1  UNL1       -0.2264
     31 H          61.9404   86.9852    8.3827 H       1  UNL1        0.1527
     32 O          59.7678   88.1410    7.0929 O.3     1  UNL1       -0.4291
     33 C          58.6817   89.0768    6.6518 C.3     1  UNL1        0.2447
     34 C          59.0100   90.2429    5.7672 C.ar    1  UNL1        0.0714
     35 C          60.3821   90.6505    5.3185 C.ar    1  UNL1        0.1053
     36 N          60.2439   91.8657    4.4500 N.ar    1  UNL1       -0.2350
     37 C          58.7864   92.2091    4.3619 C.ar    1  UNL1        0.1343
     38 S          58.0238   91.2062    5.1760 S.2     1  UNL1       -0.0652
     39 C          61.3619   88.0375   11.4882 C.3     1  UNL1        0.0460
     40 C          62.1727   89.2818   11.2778 C.ar    1  UNL1       -0.0205
     41 C          62.2021   89.9388    9.9296 C.ar    1  UNL1       -0.0042
     42 C          63.0129   91.1831    9.7192 C.ar    1  UNL1       -0.0003
     43 C          63.7943   91.7704   10.8570 C.ar    1  UNL1       -0.0000
     44 C          63.7649   91.1135   12.2051 C.ar    1  UNL1       -0.0003
     45 C          62.9541   89.8692   12.4155 C.ar    1  UNL1       -0.0042
     46 C          63.9205   84.0781   13.6239 C.3     1  UNL1        0.0459
     47 C          63.2032   82.7650   13.5184 C.ar    1  UNL1       -0.0205
     48 C          62.0383   82.4725   14.4170 C.ar    1  UNL1       -0.0042
     49 C          61.3209   81.1593   14.3115 C.ar    1  UNL1       -0.0003
     50 C          61.7685   80.1388   13.3074 C.ar    1  UNL1       -0.0000
     51 C          62.9333   80.4314   12.4088 C.ar    1  UNL1       -0.0003
     52 C          63.6506   81.7445   12.5143 C.ar    1  UNL1       -0.0042
@<TRIPOS>BOND
     1    19    20    1
     2    20    21    1
     3    20    14    1
     4    14    15   ar
     5    15    16   ar
     6    16    13    1
     7    13     7    1
     8     7     8    1
     9     7     9   am
    10     9    10    2
    11     9    11   am
    12    11     6    1
    13     6    22    1
    14    22    23    1
    15     6     2    1
    16     2     3    2
    17     2     4   am
    18     4     1    1
    19     1    25    1
    20    25    26    1
    21    27    26    1
    22    27    39    1
    23    39    40    1
    24    40    41   ar
    25    41    42   ar
    26    42    43   ar
    27    43    44   ar
    28    44    45   ar
    29    27    28    1
    30    28    29   am
    31    29    30    2
    32    29    32    1
    33    32    33    1
    34    33    34    1
    35    34    35   ar
    36    35    36   ar
    37    36    37   ar
    38    37    38   ar
    39     1    46    1
    40    46    47    1
    41    47    48   ar
    42    48    49   ar
    43    49    50   ar
    44    50    51   ar
    45    51    52   ar
    46    16    17   ar
    47    17    18   ar
    48    18    14   ar
    49    45    40   ar
    50    38    34   ar
    51    52    47   ar
    52    11    12    1
    53    23    24    1
    54     4     5    1
    55    28    31    1
@<TRIPOS>MOLECULE
*****
 52 55 0 0 0
SMALL
GASTEIGER

@<TRIPOS>ATOM
      1 C          62.0419   87.5832   11.1704 C.3     1  UNL1        0.0760
      2 C          63.2273   89.6853   12.1327 C.2     1  UNL1        0.2429
      3 O          62.9843   90.4125   10.8436 O.2     1  UNL1       -0.2732
      4 N          62.7562   88.2706   12.2962 N.am    1  UNL1       -0.3042
      5 H          62.9157   87.7932   13.1423 H       1  UNL1        0.1494
      6 CA         63.9415   90.3727   13.2585 C.3     1  UNL1        0.1793
      7 N          67.3861   92.2275   13.9254 N.am    1  UNL1       -0.2567
      8 C          68.0390   93.0585   14.9900 C.3     1  UNL1        0.1168
      9 C          65.9903   91.7156   14.1242 C.2     1  UNL1        0.3047
     10 O          65.2473   92.0346   15.3876 O.2     1  UNL1       -0.2526
     11 N          65.3374   90.8846   13.0596 N.am    1  UNL1       -0.2805
     12 H          65.8251   90.6753   12.2304 H       1  UNL1        0.1514
     13 C          68.1291   91.9085   12.6620 C.3     1  UNL1        0.1413
     14 C          67.0632   94.4169    9.8983 C.ar    1  UNL1        0.0875
     15 N          67.0706   93.9705   11.3303 N.ar    1  UNL1       -0.2453
     16 C          67.8647   92.7008   11.4160 C.ar    1  UNL1        0.0858
     17 C          68.3481   92.3625   10.0369 C.ar    1  UNL1        0.0530
     18 S          67.8528   93.4231    9.0989 S.2     1  UNL1       -0.0705
     19 C          66.6583   96.0948    7.9565 C.3     1  UNL1        0.0069
     20 C          66.3852   95.6419    9.3602 C.3     1  UNL1        0.0465
     21 C          65.4342   96.4142   10.2257 C.3     1  UNL1        0.0069
     22 C          63.2599   90.5482   14.5831 C.3     1  UNL1        0.1661
     23 O          61.9664   89.8411   14.8605 O.3     1  UNL1       -0.3798
     24 H          61.2757   90.1892   14.2751 H       1  UNL1        0.2105
     25 C          62.7891   86.6440   10.2705 C.3     1  UNL1        0.0216
     26 C          62.3664   85.2085   10.1677 C.3     1  UNL1        0.0217
     27 C          62.8694   84.2054   11.1632 C.3     1  UNL1        0.0792
     28 N          63.4008   84.6654   12.4883 N.am    1  UNL1       -0.2720
     29 C          64.6398   84.0400   13.0576 C.2     1  UNL1        0.4019
     30 O          65.3472   82.9546   12.3017 O.2     1  UNL1       -0.2264
     31 H          62.9365   85.3778   12.9844 H       1  UNL1        0.1527
     32 O          65.1712   84.4999   14.3827 O.3     1  UNL1       -0.4291
     33 C          64.3031   84.4303   15.6040 C.3     1  UNL1        0.2447
     34 C          63.7134   85.6846   16.1775 C.ar    1  UNL1        0.0714
     35 C          64.0443   87.0863   15.7583 C.ar    1  UNL1        0.1053
     36 N          63.2247   88.0254   16.5927 N.ar    1  UNL1       -0.2350
     37 C          62.3871   87.2042   17.5276 C.ar    1  UNL1        0.1343
     38 S          62.6892   85.7575   17.2710 S.2     1  UNL1       -0.0652
     39 C          62.8410   82.7424   10.8334 C.3     1  UNL1        0.0460
     40 C          62.4977   81.7406   11.8959 C.ar    1  UNL1       -0.0205
     41 C          61.7529   82.1747   13.1234 C.ar    1  UNL1       -0.0042
     42 C          61.4096   81.1730   14.1857 C.ar    1  UNL1       -0.0003
     43 C          61.8111   79.7372   14.0205 C.ar    1  UNL1       -0.0000
     44 C          62.5559   79.3031   12.7930 C.ar    1  UNL1       -0.0003
     45 C          62.8992   80.3048   11.7307 C.ar    1  UNL1       -0.0042
     46 C          60.5805   87.8349   10.9445 C.3     1  UNL1        0.0459
     47 C          60.0599   88.0315    9.5516 C.ar    1  UNL1       -0.0205
     48 C          59.3992   86.8942    8.8303 C.ar    1  UNL1       -0.0042
     49 C          58.8786   87.0908    7.4374 C.ar    1  UNL1       -0.0003
     50 C          59.0187   88.4247    6.7657 C.ar    1  UNL1       -0.0000
     51 C          59.6793   89.5620    7.4869 C.ar    1  UNL1       -0.0003
     52 C          60.1999   89.3654    8.8798 C.ar    1  UNL1       -0.0042
@<TRIPOS>BOND
     1    19    20    1
     2    20    21    1
     3    20    14    1
     4    14    15   ar
     5    15    16   ar
     6    16    13    1
     7    13     7    1
     8     7     8    1
     9     7     9   am
    10     9    10    2
    11     9    11   am
    12    11     6    1
    13     6    22    1
    14    22    23    1
    15     6     2    1
    16     2     3    2
    17     2     4   am
    18     4     1    1
    19     1    25    1
    20    25    26    1
    21    27    26    1
    22    27    39    1
    23    39    40    1
    24    40    41   ar
    25    41    42   ar
    26    42    43   ar
    27    43    44   ar
    28    44    45   ar
    29    27    28    1
    30    28    29   am
    31    29    30    2
    32    29    32    1
    33    32    33    1
    34    33    34    1
    35    34    35   ar
    36    35    36   ar
    37    36    37   ar
    38    37    38   ar
    39     1    46    1
    40    46    47    1
    41    47    48   ar
    42    48    49   ar
    43    49    50   ar
    44    50    51   ar
    45    51    52   ar
    46    16    17   ar
    47    17    18   ar
    48    18    14   ar
    49    45    40   ar
    50    38    34   ar
    51    52    47   ar
    52    11    12    1
    53    23    24    1
    54     4     5    1
    55    28    31    1
@<TRIPOS>MOLECULE
*****
 52 55 0 0 0
SMALL
GASTEIGER

@<TRIPOS>ATOM
      1 C          62.7549   86.2176   11.3523 C.3     1  UNL1        0.0760
      2 C          61.2780   88.3494   11.5082 C.2     1  UNL1        0.2429
      3 O          60.0465   87.4938   11.5428 O.2     1  UNL1       -0.2732
      4 N          62.6323   87.7113   11.4129 N.am    1  UNL1       -0.3042
      5 H          63.4406   88.2729   11.3902 H       1  UNL1        0.1494
      6 CA         61.1554   89.8431   11.5689 C.3     1  UNL1        0.1793
      7 N          64.3940   92.1310   11.4017 N.am    1  UNL1       -0.2567
      8 C          65.2894   92.7552   10.3729 C.3     1  UNL1        0.1168
      9 C          63.2224   91.2992   10.9709 C.2     1  UNL1        0.3047
     10 O          62.9463   91.0916    9.5112 O.2     1  UNL1       -0.2526
     11 N          62.3270   90.6750   11.9997 N.am    1  UNL1       -0.2805
     12 H          62.5082   90.8112   12.9578 H       1  UNL1        0.1514
     13 C          64.6700   92.3385   12.8614 C.3     1  UNL1        0.1413
     14 C          68.0290   92.6424   14.7825 C.ar    1  UNL1        0.0875
     15 N          66.5447   92.8419   14.6992 N.ar    1  UNL1       -0.2453
     16 C          66.0828   92.3339   13.3656 C.ar    1  UNL1        0.0858
     17 C          67.2817   91.8203   12.6246 C.ar    1  UNL1        0.0530
     18 S          68.4845   92.0110   13.5003 S.2     1  UNL1       -0.0705
     19 C          69.3375   94.4328   16.1361 C.3     1  UNL1        0.0069
     20 C          68.9042   93.0097   15.9440 C.3     1  UNL1        0.0465
     21 C          69.3461   91.9539   16.9135 C.3     1  UNL1        0.0069
     22 C          59.8613   90.5051   11.1987 C.3     1  UNL1        0.1661
     23 O          58.6404   90.2899   12.0430 O.3     1  UNL1       -0.3798
     24 H          58.3688   89.3603   11.9878 H       1  UNL1        0.2105
     25 C          62.4251   85.3884   12.5579 C.3     1  UNL1        0.0216
     26 C          63.4578   84.4709   13.1424 C.3     1  UNL1        0.0217
     27 C          63.1362   83.6600   14.3627 C.3     1  UNL1        0.0792
     28 N          63.3538   84.2414   15.7283 N.am    1  UNL1       -0.2720
     29 C          62.2743   85.0559   16.3774 C.2     1  UNL1        0.4019
     30 O          60.9772   85.2889   15.6611 O.2     1  UNL1       -0.2264
     31 H          64.2052   84.0885   16.1984 H       1  UNL1        0.1527
     32 O          62.4920   85.6373   17.7430 O.3     1  UNL1       -0.4291
     33 C          62.7790   87.1014   17.8977 C.3     1  UNL1        0.2447
     34 C          63.2078   87.9112   16.7101 C.ar    1  UNL1        0.0714
     35 C          63.8698   87.3802   15.4733 C.ar    1  UNL1        0.1053
     36 N          64.1209   88.5351   14.5497 N.ar    1  UNL1       -0.2350
     37 C          63.6142   89.7799   15.2156 C.ar    1  UNL1        0.1343
     38 S          63.0498   89.3943   16.5509 S.2     1  UNL1       -0.0652
     39 C          62.5969   82.2679   14.2176 C.3     1  UNL1        0.0460
     40 C          62.7381   81.5411   12.9130 C.ar    1  UNL1       -0.0205
     41 C          62.4553   80.0699   12.8396 C.ar    1  UNL1       -0.0042
     42 C          62.5965   79.3432   11.5351 C.ar    1  UNL1       -0.0003
     43 C          63.0207   80.0877   10.3039 C.ar    1  UNL1       -0.0000
     44 C          63.3035   81.5589   10.3772 C.ar    1  UNL1       -0.0003
     45 C          63.1623   82.2856   11.6818 C.ar    1  UNL1       -0.0042
     46 C          63.2073   85.5530   10.0858 C.3     1  UNL1        0.0459
     47 C          62.2863   85.4858    8.9038 C.ar    1  UNL1       -0.0205
     48 C          62.7247   84.7884    7.6501 C.ar    1  UNL1       -0.0042
     49 C          61.8038   84.7212    6.4681 C.ar    1  UNL1       -0.0003
     50 C          60.4444   85.3514    6.5396 C.ar    1  UNL1       -0.0000
     51 C          60.0061   86.0488    7.7932 C.ar    1  UNL1       -0.0003
     52 C          60.9271   86.1160    8.9752 C.ar    1  UNL1       -0.0042
@<TRIPOS>BOND
     1    19    20    1
     2    20    21    1
     3    20    14    1
     4    14    15   ar
     5    15    16   ar
     6    16    13    1
     7    13     7    1
     8     7     8    1
     9     7     9   am
    10     9    10    2
    11     9    11   am
    12    11     6    1
    13     6    22    1
    14    22    23    1
    15     6     2    1
    16     2     3    2
    17     2     4   am
    18     4     1    1
    19     1    25    1
    20    25    26    1
    21    27    26    1
    22    27    39    1
    23    39    40    1
    24    40    41   ar
    25    41    42   ar
    26    42    43   ar
    27    43    44   ar
    28    44    45   ar
    29    27    28    1
    30    28    29   am
    31    29    30    2
    32    29    32    1
    33    32    33    1
    34    33    34    1
    35    34    35   ar
    36    35    36   ar
    37    36    37   ar
    38    37    38   ar
    39     1    46    1
    40    46    47    1
    41    47    48   ar
    42    48    49   ar
    43    49    50   ar
    44    50    51   ar
    45    51    52   ar
    46    16    17   ar
    47    17    18   ar
    48    18    14   ar
    49    45    40   ar
    50    38    34   ar
    51    52    47   ar
    52    11    12    1
    53    23    24    1
    54     4     5    1
    55    28    31    1
