@<TRIPOS>MOLECULE
*****
 64 71 0 0 0
SMALL
GASTEIGER

@<TRIPOS>ATOM
      1 N          62.2887   94.6529   -3.6427 N.3     1  UNL1       -0.1862
      2 C          61.1805   94.3505   -4.6073 C.3     1  UNL1        0.1775
      3 C          59.8451   93.8963   -4.0970 C.2     1  UNL1        0.2452
      4 O          58.7369   93.5939   -5.0616 O.2     1  UNL1       -0.2732
      5 N          59.6179   93.7446   -2.6221 N.am    1  UNL1       -0.2541
      6 C          58.2825   93.2905   -2.1118 C.3     1  UNL1        0.1577
      7 C          58.0552   93.1388   -0.6369 C.2     1  UNL1        0.2445
      8 O          56.7198   92.6847   -0.1266 O.2     1  UNL1       -0.2731
      9 N          59.1635   93.4412    0.3278 N.am    1  UNL1       -0.2705
     10 C          60.4989   93.8954   -0.1826 C.3     1  UNL1        0.1359
     11 C          60.7261   94.0471   -1.6575 C.3     1  UNL1        0.1908
     12 N          62.0615   94.5012   -2.1679 N.am    1  UNL1       -0.1863
     13 C          63.1697   94.8036   -1.2032 C.2     1  UNL1        0.3191
     14 O          62.9425   94.6519    0.2717 O.2     1  UNL1       -0.2512
     15 N          64.5051   95.2577   -1.7135 N.am    1  UNL1       -0.2836
     16 H          64.6543   95.3573   -2.6816 H       1  UNL1        0.1513
     17 C          63.6242   95.1070   -4.1531 C.3     1  UNL1        0.1188
     18 C          64.5710   92.7786   -4.8104 C.2     1  UNL1       -0.0034
     19 C          64.3992   94.2402   -5.1006 C.2     1  UNL1       -0.0071
     20 C          57.1743   92.9881   -3.0763 C.3     1  UNL1        0.0556
     21 C          56.0326   93.9484   -3.2320 C.ar    1  UNL1       -0.0198
     22 C          55.6818   94.4830   -4.5889 C.ar    1  UNL1       -0.0011
     23 C          54.5401   95.4433   -4.7446 C.ar    1  UNL1        0.0363
     24 C          53.7491   95.8691   -3.5433 C.ar    1  UNL1        0.1337
     25 O          52.6074   96.8294   -3.6990 O.3     1  UNL1       -0.5055
     26 C          54.0998   95.3345   -2.1864 C.ar    1  UNL1        0.0363
     27 C          55.2415   94.3742   -2.0307 C.ar    1  UNL1       -0.0011
     28 H          52.3883   97.1633   -4.5467 H       1  UNL1        0.2922
     29 C          58.9362   93.2895    1.8026 C.3     1  UNL1        0.1217
     30 C          59.9279   92.5387    2.6410 C.ar    1  UNL1        0.0135
     31 C          61.3739   92.5063    2.2434 C.ar    1  UNL1       -0.0012
     32 C          62.3656   91.7555    3.0817 C.ar    1  UNL1       -0.0002
     33 C          61.9113   91.0370    4.3175 C.ar    1  UNL1        0.0016
     34 C          60.4653   91.0693    4.7151 C.ar    1  UNL1        0.0214
     35 C          59.7283   90.4605    5.8710 C.ar    1  UNL1        0.0722
     36 C          58.2812   90.8351    5.7471 C.ar    1  UNL1        0.0805
     37 N          58.1238   91.6754    4.5147 N.ar    1  UNL1       -0.3241
     38 C          56.8416   92.2670    4.0088 C.3     1  UNL1        0.1305
     39 C          59.4736   91.8201    3.8768 C.ar    1  UNL1        0.0577
     40 C          60.3325   89.6239    6.9597 C.2     1  UNL1        0.2510
     41 O          61.4986   90.1450    7.7464 O.2     1  UNL1       -0.2698
     42 N          59.7706   88.2664    7.2618 N.am    1  UNL1       -0.2791
     43 H          59.0052   87.9244    6.7455 H       1  UNL1        0.1552
     44 C          60.3746   87.4298    8.3504 C.ar    1  UNL1        0.0701
     45 C          60.2310   87.8471    9.7841 C.ar    1  UNL1        0.0191
     46 C          60.8351   87.0106   10.8728 C.ar    1  UNL1        0.0356
     47 C          61.5827   85.7568   10.5279 C.ar    1  UNL1        0.1318
     48 N          61.7263   85.3395    9.0943 N.ar    1  UNL1       -0.2279
     49 C          61.1223   86.1760    8.0056 C.ar    1  UNL1        0.1149
     50 N          62.1868   84.9202   11.6165 N.pl3   1  UNL1       -0.2931
     51 C          62.4279   85.5143   12.9727 C.3     1  UNL1        0.0946
     52 C          63.0320   84.6778   14.0614 C.3     1  UNL1        0.0507
     53 C          63.3950   83.2471   13.7940 C.3     1  UNL1        0.1139
     54 O          63.9991   82.4106   14.8827 O.3     1  UNL1       -0.3843
     55 C          63.1539   82.6530   12.4380 C.3     1  UNL1        0.0507
     56 C          62.5498   83.4896   11.3492 C.3     1  UNL1        0.0946
     57 H          64.1722   81.5175   14.5459 H       1  UNL1        0.2103
     58 C          65.6133   95.5601   -0.7490 C.3     1  UNL1        0.1177
     59 C          65.3437   95.5620    0.7266 C.ar    1  UNL1       -0.0025
     60 C          65.0603   96.8531    1.4356 C.ar    1  UNL1       -0.0026
     61 C          64.7906   96.8550    2.9111 C.ar    1  UNL1       -0.0003
     62 C          64.8044   95.5658    3.6777 C.ar    1  UNL1       -0.0000
     63 C          65.0878   94.2746    2.9687 C.ar    1  UNL1       -0.0003
     64 C          65.3575   94.2727    1.4932 C.ar    1  UNL1       -0.0026
@<TRIPOS>BOND
     1    18    19    2
     2    19    17    1
     3    17     1    1
     4     1     2    1
     5     2     3    1
     6     3     4    2
     7     3     5   am
     8     5     6    1
     9     6    20    1
    10    20    21    1
    11    21    22   ar
    12    22    23   ar
    13    23    24   ar
    14    24    25    1
    15    24    26   ar
    16    26    27   ar
    17     6     7    1
    18     7     8    2
    19     7     9   am
    20     9    29    1
    21    29    30    1
    22    30    31   ar
    23    31    32   ar
    24    32    33   ar
    25    33    34   ar
    26    34    35   ar
    27    35    40    1
    28    40    41    2
    29    40    42   am
    30    42    44    1
    31    44    45   ar
    32    45    46   ar
    33    46    47   ar
    34    47    50    1
    35    50    51    1
    36    51    52    1
    37    52    53    1
    38    53    54    1
    39    53    55    1
    40    55    56    1
    41    47    48   ar
    42    48    49   ar
    43    35    36   ar
    44    36    37   ar
    45    37    38    1
    46    37    39   ar
    47     9    10    1
    48    10    11    1
    49    11    12    1
    50    12    13   am
    51    13    14    2
    52    13    15   am
    53    15    58    1
    54    58    59    1
    55    59    60   ar
    56    60    61   ar
    57    61    62   ar
    58    62    63   ar
    59    63    64   ar
    60    12     1    1
    61    64    59   ar
    62    11     5    1
    63    27    21   ar
    64    39    30   ar
    65    39    34   ar
    66    49    44   ar
    67    56    50    1
    68    25    28    1
    69    42    43    1
    70    54    57    1
    71    15    16    1
@<TRIPOS>MOLECULE
*****
 64 71 0 0 0
SMALL
GASTEIGER

@<TRIPOS>ATOM
      1 N          58.2678   96.1461   -3.4193 N.3     1  UNL1       -0.1862
      2 C          59.7383   96.3428   -3.6406 C.3     1  UNL1        0.1775
      3 C          60.7258   95.7823   -2.6605 C.2     1  UNL1        0.2452
      4 O          62.1964   95.9791   -2.8818 O.2     1  UNL1       -0.2732
      5 N          60.2429   95.0250   -1.4591 N.am    1  UNL1       -0.2541
      6 C          61.2305   94.4645   -0.4791 C.3     1  UNL1        0.1577
      7 C          60.7475   93.7072    0.7223 C.2     1  UNL1        0.2445
      8 O          61.7351   93.1467    1.7024 O.2     1  UNL1       -0.2731
      9 N          59.2770   93.5104    0.9436 N.am    1  UNL1       -0.2705
     10 C          58.2895   94.0709   -0.0365 C.3     1  UNL1        0.1359
     11 C          58.7725   94.8283   -1.2379 C.3     1  UNL1        0.1908
     12 N          57.7849   95.3888   -2.2180 N.am    1  UNL1       -0.1863
     13 C          56.3144   95.1920   -1.9967 C.2     1  UNL1        0.3191
     14 O          55.8315   94.4347   -0.7953 O.2     1  UNL1       -0.2512
     15 N          55.3269   95.7525   -2.9767 N.am    1  UNL1       -0.2836
     16 H          55.6438   96.2496   -3.7652 H       1  UNL1        0.1513
     17 C          57.2803   96.7066   -4.3994 C.3     1  UNL1        0.1188
     18 C          56.7820   94.9461   -6.2439 C.2     1  UNL1       -0.0034
     19 C          57.3278   96.2828   -5.8375 C.2     1  UNL1       -0.0071
     20 C          62.7009   94.6612   -0.7003 C.3     1  UNL1        0.0556
     21 C          63.5608   95.1968    0.4059 C.ar    1  UNL1       -0.0198
     22 C          63.0622   96.3193    1.2669 C.ar    1  UNL1       -0.0011
     23 C          63.9221   96.8549    2.3732 C.ar    1  UNL1        0.0363
     24 C          65.2805   96.2680    2.6184 C.ar    1  UNL1        0.1337
     25 O          66.1404   96.8036    3.7247 O.3     1  UNL1       -0.5055
     26 C          65.7791   95.1454    1.7574 C.ar    1  UNL1        0.0363
     27 C          64.9193   94.6098    0.6512 C.ar    1  UNL1       -0.0011
     28 H          65.8289   97.5048    4.2625 H       1  UNL1        0.2922
     29 C          58.7941   92.7531    2.1450 C.3     1  UNL1        0.1217
     30 C          59.7806   92.0904    3.0602 C.ar    1  UNL1        0.0135
     31 C          61.2403   92.0887    2.7148 C.ar    1  UNL1       -0.0012
     32 C          62.2268   91.4260    3.6300 C.ar    1  UNL1       -0.0002
     33 C          61.7536   90.7651    4.8907 C.ar    1  UNL1        0.0016
     34 C          60.2939   90.7668    5.2361 C.ar    1  UNL1        0.0214
     35 C          59.5374   90.2001    6.4008 C.ar    1  UNL1        0.0722
     36 C          58.0834   90.5125    6.2054 C.ar    1  UNL1        0.0805
     37 N          57.9413   91.2723    4.9199 N.ar    1  UNL1       -0.3241
     38 C          56.6582   91.7849    4.3360 C.3     1  UNL1        0.1305
     39 C          59.3074   91.4295    4.3209 C.ar    1  UNL1        0.0577
     40 C          60.1309   89.4522    7.5578 C.2     1  UNL1        0.2510
     41 O          60.6260   90.2005    8.7599 O.2     1  UNL1       -0.2698
     42 N          60.2292   87.9561    7.5127 N.am    1  UNL1       -0.2791
     43 H          59.9042   87.4651    6.7237 H       1  UNL1        0.1552
     44 C          60.8225   87.2082    8.6696 C.ar    1  UNL1        0.0701
     45 C          62.0176   86.3265    8.4590 C.ar    1  UNL1        0.0191
     46 C          62.6110   85.5785    9.6158 C.ar    1  UNL1        0.0356
     47 C          62.0094   85.7123   10.9834 C.ar    1  UNL1        0.1318
     48 N          60.8143   86.5941   11.1940 N.ar    1  UNL1       -0.2279
     49 C          60.2209   87.3420   10.0371 C.ar    1  UNL1        0.1149
     50 N          62.6028   84.9644   12.1403 N.pl3   1  UNL1       -0.2931
     51 C          63.4829   85.6785   13.1229 C.3     1  UNL1        0.0946
     52 C          64.0763   84.9307   14.2799 C.3     1  UNL1        0.0507
     53 C          63.7896   83.4687   14.4543 C.3     1  UNL1        0.1139
     54 O          64.3830   82.7208   15.6112 O.3     1  UNL1       -0.3843
     55 C          62.9095   82.7546   13.4717 C.3     1  UNL1        0.0507
     56 C          62.3161   83.5024   12.3147 C.3     1  UNL1        0.0946
     57 H          64.1002   81.7936   15.5761 H       1  UNL1        0.2103
     58 C          53.8564   95.5558   -2.7555 C.3     1  UNL1        0.1177
     59 C          52.8822   95.8935   -3.8449 C.ar    1  UNL1       -0.0025
     60 C          51.4179   95.9957   -3.5365 C.ar    1  UNL1       -0.0026
     61 C          50.4437   96.3334   -4.6259 C.ar    1  UNL1       -0.0003
     62 C          50.9338   96.5690   -6.0238 C.ar    1  UNL1       -0.0000
     63 C          52.3983   96.4669   -6.3323 C.ar    1  UNL1       -0.0003
     64 C          53.3724   96.1291   -5.2429 C.ar    1  UNL1       -0.0026
@<TRIPOS>BOND
     1    18    19    2
     2    19    17    1
     3    17     1    1
     4     1     2    1
     5     2     3    1
     6     3     4    2
     7     3     5   am
     8     5     6    1
     9     6    20    1
    10    20    21    1
    11    21    22   ar
    12    22    23   ar
    13    23    24   ar
    14    24    25    1
    15    24    26   ar
    16    26    27   ar
    17     6     7    1
    18     7     8    2
    19     7     9   am
    20     9    29    1
    21    29    30    1
    22    30    31   ar
    23    31    32   ar
    24    32    33   ar
    25    33    34   ar
    26    34    35   ar
    27    35    40    1
    28    40    41    2
    29    40    42   am
    30    42    44    1
    31    44    45   ar
    32    45    46   ar
    33    46    47   ar
    34    47    50    1
    35    50    51    1
    36    51    52    1
    37    52    53    1
    38    53    54    1
    39    53    55    1
    40    55    56    1
    41    47    48   ar
    42    48    49   ar
    43    35    36   ar
    44    36    37   ar
    45    37    38    1
    46    37    39   ar
    47     9    10    1
    48    10    11    1
    49    11    12    1
    50    12    13   am
    51    13    14    2
    52    13    15   am
    53    15    58    1
    54    58    59    1
    55    59    60   ar
    56    60    61   ar
    57    61    62   ar
    58    62    63   ar
    59    63    64   ar
    60    12     1    1
    61    64    59   ar
    62    11     5    1
    63    27    21   ar
    64    39    30   ar
    65    39    34   ar
    66    49    44   ar
    67    56    50    1
    68    25    28    1
    69    42    43    1
    70    54    57    1
    71    15    16    1
@<TRIPOS>MOLECULE
*****
 64 71 0 0 0
SMALL
GASTEIGER

@<TRIPOS>ATOM
      1 N          58.2338   96.1274   -3.6688 N.3     1  UNL1       -0.1862
      2 C          59.6928   96.3530   -3.9343 C.3     1  UNL1        0.1775
      3 C          60.7113   95.9664   -2.9031 C.2     1  UNL1        0.2452
      4 O          62.1703   96.1920   -3.1687 O.2     1  UNL1       -0.2732
      5 N          60.2708   95.3543   -1.6065 N.am    1  UNL1       -0.2541
      6 C          61.2893   94.9678   -0.5754 C.3     1  UNL1        0.1577
      7 C          60.8488   94.3557    0.7213 C.2     1  UNL1        0.2445
      8 O          61.8673   93.9691    1.7524 O.2     1  UNL1       -0.2731
      9 N          59.3898   94.1301    0.9868 N.am    1  UNL1       -0.2705
     10 C          58.3713   94.5167   -0.0444 C.3     1  UNL1        0.1359
     11 C          58.8118   95.1288   -1.3410 C.3     1  UNL1        0.1908
     12 N          57.7934   95.5153   -2.3722 N.am    1  UNL1       -0.1863
     13 C          56.3343   95.2898   -2.1066 C.2     1  UNL1        0.3191
     14 O          55.8939   94.6777   -0.8100 O.2     1  UNL1       -0.2512
     15 N          55.3158   95.6763   -3.1378 N.am    1  UNL1       -0.2836
     16 H          55.6050   96.0781   -3.9888 H       1  UNL1        0.1513
     17 C          57.2154   96.5140   -4.6999 C.3     1  UNL1        0.1188
     18 C          57.2579   94.3051   -6.0670 C.2     1  UNL1       -0.0034
     19 C          57.1767   95.8021   -6.0197 C.2     1  UNL1       -0.0071
     20 C          62.7482   95.1933   -0.8408 C.3     1  UNL1        0.0556
     21 C          63.4091   94.5281   -2.0116 C.ar    1  UNL1       -0.0198
     22 C          63.0692   93.1088   -2.3580 C.ar    1  UNL1       -0.0011
     23 C          63.7301   92.4436   -3.5288 C.ar    1  UNL1        0.0363
     24 C          64.7309   93.1977   -4.3532 C.ar    1  UNL1        0.1337
     25 O          65.3918   92.5325   -5.5240 O.3     1  UNL1       -0.5055
     26 C          65.0709   94.6170   -4.0068 C.ar    1  UNL1        0.0363
     27 C          64.4100   95.2822   -2.8360 C.ar    1  UNL1       -0.0011
     28 H          65.1794   91.6459   -5.7404 H       1  UNL1        0.2922
     29 C          58.9493   93.5180    2.2834 C.3     1  UNL1        0.1217
     30 C          59.8710   92.6006    3.0311 C.ar    1  UNL1        0.0135
     31 C          61.3165   92.5088    2.6412 C.ar    1  UNL1       -0.0012
     32 C          62.2382   91.5916    3.3888 C.ar    1  UNL1       -0.0002
     33 C          61.7144   90.7661    4.5264 C.ar    1  UNL1        0.0016
     34 C          60.2689   90.8579    4.9164 C.ar    1  UNL1        0.0214
     35 C          59.4723   90.1716    5.9862 C.ar    1  UNL1        0.0722
     36 C          58.0584   90.6647    5.8997 C.ar    1  UNL1        0.0805
     37 N          57.9810   91.6558    4.7765 N.ar    1  UNL1       -0.3241
     38 C          56.7531   92.3973    4.3379 C.3     1  UNL1        0.1305
     39 C          59.3472   91.7752    4.1687 C.ar    1  UNL1        0.0577
     40 C          59.9976   89.1682    6.9698 C.2     1  UNL1        0.2510
     41 O          59.9356   87.7035    6.6526 O.2     1  UNL1       -0.2698
     42 N          60.5849   89.6297    8.2707 N.am    1  UNL1       -0.2791
     43 H          60.6257   90.5911    8.4788 H       1  UNL1        0.1552
     44 C          61.1102   88.6265    9.2543 C.ar    1  UNL1        0.0701
     45 C          60.6789   87.1925    9.1657 C.ar    1  UNL1        0.0191
     46 C          61.2041   86.1892   10.1493 C.ar    1  UNL1        0.0356
     47 C          62.1606   86.6198   11.2215 C.ar    1  UNL1        0.1318
     48 N          62.5919   88.0538   11.3101 N.ar    1  UNL1       -0.2279
     49 C          62.0667   89.0571   10.3265 C.ar    1  UNL1        0.1149
     50 N          62.6859   85.6166   12.2051 N.pl3   1  UNL1       -0.2931
     51 C          63.4367   86.0784   13.4189 C.3     1  UNL1        0.0946
     52 C          63.9620   85.0752   14.4026 C.3     1  UNL1        0.0507
     53 C          63.7365   83.6102   14.1726 C.3     1  UNL1        0.1139
     54 O          64.2617   82.6070   15.1562 O.3     1  UNL1       -0.3843
     55 C          62.9857   83.1484   12.9589 C.3     1  UNL1        0.0507
     56 C          62.4603   84.1516   11.9752 C.3     1  UNL1        0.0946
     57 H          64.0313   81.7125   14.8601 H       1  UNL1        0.2103
     58 C          53.8569   95.4508   -2.8723 C.3     1  UNL1        0.1177
     59 C          52.8366   95.8626   -3.8919 C.ar    1  UNL1       -0.0025
     60 C          53.2580   96.1427   -5.3039 C.ar    1  UNL1       -0.0026
     61 C          52.2378   96.5544   -6.3235 C.ar    1  UNL1       -0.0003
     62 C          50.7961   96.6861   -5.9310 C.ar    1  UNL1       -0.0000
     63 C          50.3746   96.4061   -4.5188 C.ar    1  UNL1       -0.0003
     64 C          51.3948   95.9943   -3.4993 C.ar    1  UNL1       -0.0026
@<TRIPOS>BOND
     1    18    19    2
     2    19    17    1
     3    17     1    1
     4     1     2    1
     5     2     3    1
     6     3     4    2
     7     3     5   am
     8     5     6    1
     9     6    20    1
    10    20    21    1
    11    21    22   ar
    12    22    23   ar
    13    23    24   ar
    14    24    25    1
    15    24    26   ar
    16    26    27   ar
    17     6     7    1
    18     7     8    2
    19     7     9   am
    20     9    29    1
    21    29    30    1
    22    30    31   ar
    23    31    32   ar
    24    32    33   ar
    25    33    34   ar
    26    34    35   ar
    27    35    40    1
    28    40    41    2
    29    40    42   am
    30    42    44    1
    31    44    45   ar
    32    45    46   ar
    33    46    47   ar
    34    47    50    1
    35    50    51    1
    36    51    52    1
    37    52    53    1
    38    53    54    1
    39    53    55    1
    40    55    56    1
    41    47    48   ar
    42    48    49   ar
    43    35    36   ar
    44    36    37   ar
    45    37    38    1
    46    37    39   ar
    47     9    10    1
    48    10    11    1
    49    11    12    1
    50    12    13   am
    51    13    14    2
    52    13    15   am
    53    15    58    1
    54    58    59    1
    55    59    60   ar
    56    60    61   ar
    57    61    62   ar
    58    62    63   ar
    59    63    64   ar
    60    12     1    1
    61    64    59   ar
    62    11     5    1
    63    27    21   ar
    64    39    30   ar
    65    39    34   ar
    66    49    44   ar
    67    56    50    1
    68    25    28    1
    69    42    43    1
    70    54    57    1
    71    15    16    1
@<TRIPOS>MOLECULE
*****
 64 71 0 0 0
SMALL
GASTEIGER

@<TRIPOS>ATOM
      1 N          62.2671   95.2467   -3.4657 N.3     1  UNL1       -0.1862
      2 C          61.1417   95.1418   -4.4518 C.3     1  UNL1        0.1775
      3 C          59.7711   94.7483   -3.9866 C.2     1  UNL1        0.2452
      4 O          58.6457   94.6433   -4.9728 O.2     1  UNL1       -0.2732
      5 N          59.5258   94.4597   -2.5352 N.am    1  UNL1       -0.2541
      6 C          58.1551   94.0662   -2.0700 C.3     1  UNL1        0.1577
      7 C          57.9098   93.7776   -0.6186 C.2     1  UNL1        0.2445
      8 O          56.5392   93.3841   -0.1534 O.2     1  UNL1       -0.2731
      9 N          59.0352   93.8826    0.3676 N.am    1  UNL1       -0.2705
     10 C          60.4059   94.2761   -0.0976 C.3     1  UNL1        0.1359
     11 C          60.6511   94.5646   -1.5491 C.3     1  UNL1        0.1908
     12 N          62.0218   94.9582   -2.0143 N.am    1  UNL1       -0.1863
     13 C          63.1472   95.0631   -1.0281 C.2     1  UNL1        0.3191
     14 O          62.9019   94.7745    0.4233 O.2     1  UNL1       -0.2512
     15 N          64.5178   95.4566   -1.4933 N.am    1  UNL1       -0.2836
     16 H          64.6788   95.6460   -2.4459 H       1  UNL1        0.1513
     17 C          63.6378   95.6402   -3.9309 C.3     1  UNL1        0.1188
     18 C          65.1579   95.2562   -6.0025 C.2     1  UNL1       -0.0034
     19 C          64.4256   94.7152   -4.8105 C.2     1  UNL1       -0.0071
     20 C          57.0298   93.9612   -3.0561 C.3     1  UNL1        0.0556
     21 C          56.4108   92.6266   -3.3485 C.ar    1  UNL1       -0.0198
     22 C          56.0828   92.2453   -4.7617 C.ar    1  UNL1       -0.0011
     23 C          55.4638   90.9106   -5.0540 C.ar    1  UNL1        0.0363
     24 C          55.1727   89.9572   -3.9333 C.ar    1  UNL1        0.1337
     25 O          54.5537   88.6226   -4.2256 O.3     1  UNL1       -0.5055
     26 C          55.5006   90.3385   -2.5200 C.ar    1  UNL1        0.0363
     27 C          56.1196   91.6731   -2.2276 C.ar    1  UNL1       -0.0011
     28 H          54.3489   88.3844   -5.1084 H       1  UNL1        0.2922
     29 C          58.7899   93.5940    1.8190 C.3     1  UNL1        0.1217
     30 C          59.7583   92.7459    2.5892 C.ar    1  UNL1        0.0135
     31 C          61.1965   92.6795    2.1685 C.ar    1  UNL1       -0.0012
     32 C          62.1648   91.8315    2.9386 C.ar    1  UNL1       -0.0002
     33 C          61.6949   91.0498    4.1294 C.ar    1  UNL1        0.0016
     34 C          60.2566   91.1162    4.5501 C.ar    1  UNL1        0.0214
     35 C          59.5081   90.4614    5.6730 C.ar    1  UNL1        0.0722
     36 C          58.0771   90.9047    5.5968 C.ar    1  UNL1        0.0805
     37 N          57.9413   91.8335    4.4269 N.ar    1  UNL1       -0.3241
     38 C          56.6800   92.5124    3.9819 C.3     1  UNL1        0.1305
     39 C          59.2883   91.9642    3.7800 C.ar    1  UNL1        0.0577
     40 C          60.0886   89.5271    6.6930 C.2     1  UNL1        0.2510
     41 O          60.4146   88.1126    6.3149 O.2     1  UNL1       -0.2698
     42 N          60.3432   90.0075    8.0910 N.am    1  UNL1       -0.2791
     43 H          60.1293   90.9359    8.3391 H       1  UNL1        0.1552
     44 C          60.9237   89.0734    9.1110 C.ar    1  UNL1        0.0701
     45 C          62.0687   89.5199    9.9710 C.ar    1  UNL1        0.0191
     46 C          62.6493   88.5858   10.9911 C.ar    1  UNL1        0.0356
     47 C          62.0848   87.2053   11.1511 C.ar    1  UNL1        0.1318
     48 N          60.9398   86.7589   10.2911 N.ar    1  UNL1       -0.2279
     49 C          60.3592   87.6929    9.2710 C.ar    1  UNL1        0.1149
     50 N          62.6653   86.2712   12.1711 N.pl3   1  UNL1       -0.2931
     51 C          62.3406   84.8077   12.1186 C.3     1  UNL1        0.0946
     52 C          62.9211   83.8735   13.1385 C.3     1  UNL1        0.0507
     53 C          63.8263   84.4028   14.2111 C.3     1  UNL1        0.1139
     54 O          64.4068   83.4688   15.2311 O.3     1  UNL1       -0.3843
     55 C          64.1510   85.8663   14.2637 C.3     1  UNL1        0.0507
     56 C          63.5705   86.8006   13.2437 C.3     1  UNL1        0.0946
     57 H          64.9648   83.9689   15.8470 H       1  UNL1        0.2103
     58 C          65.6432   95.5615   -0.5072 C.3     1  UNL1        0.1177
     59 C          65.3534   95.5603    0.9645 C.ar    1  UNL1       -0.0025
     60 C          65.1215   94.2637    1.6822 C.ar    1  UNL1       -0.0026
     61 C          64.8317   94.2624    3.1539 C.ar    1  UNL1       -0.0003
     62 C          64.7736   95.5577    3.9080 C.ar    1  UNL1       -0.0000
     63 C          65.0055   96.8544    3.1904 C.ar    1  UNL1       -0.0003
     64 C          65.2953   96.8557    1.7186 C.ar    1  UNL1       -0.0026
@<TRIPOS>BOND
     1    18    19    2
     2    19    17    1
     3    17     1    1
     4     1     2    1
     5     2     3    1
     6     3     4    2
     7     3     5   am
     8     5     6    1
     9     6    20    1
    10    20    21    1
    11    21    22   ar
    12    22    23   ar
    13    23    24   ar
    14    24    25    1
    15    24    26   ar
    16    26    27   ar
    17     6     7    1
    18     7     8    2
    19     7     9   am
    20     9    29    1
    21    29    30    1
    22    30    31   ar
    23    31    32   ar
    24    32    33   ar
    25    33    34   ar
    26    34    35   ar
    27    35    40    1
    28    40    41    2
    29    40    42   am
    30    42    44    1
    31    44    45   ar
    32    45    46   ar
    33    46    47   ar
    34    47    50    1
    35    50    51    1
    36    51    52    1
    37    52    53    1
    38    53    54    1
    39    53    55    1
    40    55    56    1
    41    47    48   ar
    42    48    49   ar
    43    35    36   ar
    44    36    37   ar
    45    37    38    1
    46    37    39   ar
    47     9    10    1
    48    10    11    1
    49    11    12    1
    50    12    13   am
    51    13    14    2
    52    13    15   am
    53    15    58    1
    54    58    59    1
    55    59    60   ar
    56    60    61   ar
    57    61    62   ar
    58    62    63   ar
    59    63    64   ar
    60    12     1    1
    61    64    59   ar
    62    11     5    1
    63    27    21   ar
    64    39    30   ar
    65    39    34   ar
    66    49    44   ar
    67    56    50    1
    68    25    28    1
    69    42    43    1
    70    54    57    1
    71    15    16    1
