@<TRIPOS>MOLECULE
*****
 31 33 0 0 0
SMALL
GASTEIGER

@<TRIPOS>ATOM
      1 C          64.2746   90.0902   14.4127 C.ar    1  UNL1        0.0305
      2 C          64.2724   88.7110   13.8232 C.ar    1  UNL1        0.0148
      3 C          63.8193   87.5433   14.6485 C.ar    1  UNL1        0.0505
      4 C          63.3684   87.7549   16.0634 C.ar    1  UNL1        0.0170
      5 C          63.3706   89.1341   16.6529 C.ar    1  UNL1        0.0307
      6 C          63.8237   90.3018   15.8276 C.ar    1  UNL1        0.1383
      7 F          63.8259   91.6811   16.4172 F       1  UNL1       -0.2044
      8 C          63.4223   90.9540   12.9140 C.3     1  UNL1        0.0338
      9 C          64.7277   91.2580   13.5874 C.3     1  UNL1        0.1308
     10 C          65.8757   91.1565   14.5474 C.2     1  UNL1        0.0358
     11 C          67.0235   92.1171   14.4483 C.2     1  UNL1        0.1594
     12 O          67.0232   93.1793   13.3891 O.2     1  UNL1       -0.4276
     13 C          65.8752   93.2808   12.4291 C.2     1  UNL1        0.2815
     14 N          65.8749   94.3429   11.3699 N.pl3   1  UNL1       -0.3130
     15 N          64.7274   92.3202   12.5282 N.2     1  UNL1       -0.2196
     16 H          66.6282   94.9734   11.3048 H       1  UNL1        0.1466
     17 H          65.1214   94.4096   10.7398 H       1  UNL1        0.1466
     18 C          68.1716   92.0156   15.4084 C.3     1  UNL1        0.2567
     19 F          67.9184   92.0509   16.8865 F       1  UNL1       -0.2256
     20 N          63.8172   86.1640   14.0589 N.am    1  UNL1       -0.2791
     21 C          63.1041   85.9024   12.7654 C.2     1  UNL1        0.2672
     22 O          62.3932   87.0201   12.0615 O.2     1  UNL1       -0.2682
     23 H          64.2837   85.4304   14.5209 H       1  UNL1        0.1552
     24 C          63.1019   84.5231   12.1758 C.ar    1  UNL1        0.1348
     25 C          63.5580   84.3108   10.7627 C.ar    1  UNL1        0.0245
     26 C          63.5557   82.9315   10.1731 C.ar    1  UNL1        0.0135
     27 C          63.0975   81.7646   10.9967 C.ar    1  UNL1        0.0876
     28 C          62.6414   81.9769   12.4098 C.ar    1  UNL1        0.1092
     29 N          62.6436   83.3561   12.9994 N.ar    1  UNL1       -0.2385
     30 C          63.0952   80.3853   10.4071 C.1     1  UNL1        0.1020
     31 N          63.0931   79.0060    9.8175 N.1     1  UNL1       -0.1908
@<TRIPOS>BOND
     1     9     8    1
     2     9     1    1
     3     1     2   ar
     4     2     3   ar
     5     3    20    1
     6    20    21   am
     7    21    22    2
     8    21    24    1
     9    24    25   ar
    10    25    26   ar
    11    26    27   ar
    12    27    30    1
    13    30    31    3
    14    27    28   ar
    15    28    29   ar
    16     3     4   ar
    17     4     5   ar
    18     5     6   ar
    19     6     7    1
    20     9    10    1
    21    10    11    2
    22    11    18    1
    23    18    19    1
    24    11    12    1
    25    12    13    1
    26    13    14    1
    27    13    15    2
    28    15     9    1
    29     6     1   ar
    30    29    24   ar
    31    20    23    1
    32    14    16    1
    33    14    17    1
@<TRIPOS>MOLECULE
*****
 31 33 0 0 0
SMALL
GASTEIGER

@<TRIPOS>ATOM
      1 C          63.7290   86.2670   15.1942 C.ar    1  UNL1        0.0305
      2 C          64.3570   87.4468   14.5133 C.ar    1  UNL1        0.0148
      3 C          64.2323   88.8146   15.1162 C.ar    1  UNL1        0.0505
      4 C          63.4797   89.0025   16.4001 C.ar    1  UNL1        0.0170
      5 C          62.8518   87.8227   17.0810 C.ar    1  UNL1        0.0307
      6 C          62.9764   86.4549   16.4780 C.ar    1  UNL1        0.1383
      7 F          62.3485   85.2750   17.1589 F       1  UNL1       -0.2044
      8 C          64.5655   84.6760   15.8926 C.3     1  UNL1        0.0338
      9 C          63.8537   84.8991   14.5912 C.3     1  UNL1        0.1308
     10 C          63.0987   85.5973   13.4992 C.2     1  UNL1        0.0358
     11 C          62.7155   84.8501   12.2563 C.2     1  UNL1        0.1594
     12 O          63.0874   83.4048   12.1053 O.2     1  UNL1       -0.4276
     13 C          63.8424   82.7066   13.1973 C.2     1  UNL1        0.2815
     14 N          64.2143   81.2613   13.0463 N.pl3   1  UNL1       -0.3130
     15 N          64.2256   83.4538   14.4402 N.2     1  UNL1       -0.2196
     16 H          63.9628   80.7709   12.2306 H       1  UNL1        0.1466
     17 H          64.7098   80.8031   13.7631 H       1  UNL1        0.1466
     18 C          61.9604   85.5484   11.1643 C.3     1  UNL1        0.2567
     19 F          60.8352   86.4792   11.5073 F       1  UNL1       -0.2256
     20 N          64.8602   89.9945   14.4353 N.am    1  UNL1       -0.2791
     21 C          64.1787   90.6334   13.2618 C.2     1  UNL1        0.2672
     22 O          62.8692   90.0924   12.7691 O.2     1  UNL1       -0.2682
     23 H          65.7196   90.3496   14.7587 H       1  UNL1        0.1552
     24 C          64.8065   91.8133   12.5809 C.ar    1  UNL1        0.1348
     25 C          64.6233   92.0130   11.1056 C.ar    1  UNL1        0.0245
     26 C          65.2512   93.1929   10.4247 C.ar    1  UNL1        0.0135
     27 C          66.0623   94.1731   11.2191 C.ar    1  UNL1        0.0876
     28 C          66.2456   93.9735   12.6944 C.ar    1  UNL1        0.1092
     29 N          65.6177   92.7936   13.3753 N.ar    1  UNL1       -0.2385
     30 C          66.6902   95.3530   10.5382 C.1     1  UNL1        0.1020
     31 N          67.3181   96.5329    9.8573 N.1     1  UNL1       -0.1908
@<TRIPOS>BOND
     1     9     8    1
     2     9     1    1
     3     1     2   ar
     4     2     3   ar
     5     3    20    1
     6    20    21   am
     7    21    22    2
     8    21    24    1
     9    24    25   ar
    10    25    26   ar
    11    26    27   ar
    12    27    30    1
    13    30    31    3
    14    27    28   ar
    15    28    29   ar
    16     3     4   ar
    17     4     5   ar
    18     5     6   ar
    19     6     7    1
    20     9    10    1
    21    10    11    2
    22    11    18    1
    23    18    19    1
    24    11    12    1
    25    12    13    1
    26    13    14    1
    27    13    15    2
    28    15     9    1
    29     6     1   ar
    30    29    24   ar
    31    20    23    1
    32    14    16    1
    33    14    17    1
@<TRIPOS>MOLECULE
*****
 31 33 0 0 0
SMALL
GASTEIGER

@<TRIPOS>ATOM
      1 C          64.4847   90.0699   14.5421 C.ar    1  UNL1        0.0305
      2 C          64.4093   88.6496   14.0658 C.ar    1  UNL1        0.0148
      3 C          63.7686   87.6026   14.9278 C.ar    1  UNL1        0.0505
      4 C          63.2033   87.9759   16.2662 C.ar    1  UNL1        0.0170
      5 C          63.2787   89.3962   16.7425 C.ar    1  UNL1        0.0307
      6 C          63.9194   90.4432   15.8805 C.ar    1  UNL1        0.1383
      7 F          63.9949   91.8637   16.3568 F       1  UNL1       -0.2044
      8 C          66.0327   91.1712   14.8735 C.3     1  UNL1        0.0338
      9 C          65.1255   91.1171   13.6801 C.3     1  UNL1        0.1308
     10 C          63.9958   90.6993   12.7861 C.2     1  UNL1        0.0358
     11 C          63.8219   91.3474   11.4446 C.2     1  UNL1        0.1594
     12 O          64.7778   92.4134   10.9971 O.2     1  UNL1       -0.4276
     13 C          65.9074   92.8311   11.8911 C.2     1  UNL1        0.2815
     14 N          66.8633   93.8971   11.4436 N.pl3   1  UNL1       -0.3130
     15 N          66.0813   92.1830   13.2326 N.2     1  UNL1       -0.2196
     16 H          66.7492   94.3224   10.5631 H       1  UNL1        0.1466
     17 H          67.6047   94.1713   12.0303 H       1  UNL1        0.1466
     18 C          62.6922   90.9296   10.5506 C.3     1  UNL1        0.2567
     19 F          61.3374   90.6546   11.1329 F       1  UNL1       -0.2256
     20 N          63.6931   86.1821   14.4515 N.am    1  UNL1       -0.2791
     21 C          63.2176   85.8817   13.0610 C.2     1  UNL1        0.2672
     22 O          62.8175   87.0016   12.1468 O.2     1  UNL1       -0.2682
     23 H          63.9557   85.4471   15.0516 H       1  UNL1        0.1552
     24 C          63.1421   84.4613   12.5847 C.ar    1  UNL1        0.1348
     25 C          63.4862   84.1276   11.1633 C.ar    1  UNL1        0.0245
     26 C          63.4107   82.7072   10.6871 C.ar    1  UNL1        0.0135
     27 C          62.9912   81.6206   11.6321 C.ar    1  UNL1        0.0876
     28 C          62.6471   81.9543   13.0535 C.ar    1  UNL1        0.1092
     29 N          62.7226   83.3746   13.5298 N.ar    1  UNL1       -0.2385
     30 C          62.9157   80.2002   11.1558 C.1     1  UNL1        0.1020
     31 N          62.8402   78.7798   10.6794 N.1     1  UNL1       -0.1908
@<TRIPOS>BOND
     1     9     8    1
     2     9     1    1
     3     1     2   ar
     4     2     3   ar
     5     3    20    1
     6    20    21   am
     7    21    22    2
     8    21    24    1
     9    24    25   ar
    10    25    26   ar
    11    26    27   ar
    12    27    30    1
    13    30    31    3
    14    27    28   ar
    15    28    29   ar
    16     3     4   ar
    17     4     5   ar
    18     5     6   ar
    19     6     7    1
    20     9    10    1
    21    10    11    2
    22    11    18    1
    23    18    19    1
    24    11    12    1
    25    12    13    1
    26    13    14    1
    27    13    15    2
    28    15     9    1
    29     6     1   ar
    30    29    24   ar
    31    20    23    1
    32    14    16    1
    33    14    17    1
@<TRIPOS>MOLECULE
*****
 31 33 0 0 0
SMALL
GASTEIGER

@<TRIPOS>ATOM
      1 C          62.1013   86.9319   10.9982 C.ar    1  UNL1        0.0305
      2 C          63.0790   87.9128   11.5743 C.ar    1  UNL1        0.0148
      3 C          62.6890   89.3519   11.7385 C.ar    1  UNL1        0.0505
      4 C          61.3213   89.8100   11.3265 C.ar    1  UNL1        0.0170
      5 C          60.3437   88.8291   10.7504 C.ar    1  UNL1        0.0307
      6 C          60.7337   87.3900   10.5863 C.ar    1  UNL1        0.1383
      7 F          59.7561   86.4090   10.0101 F       1  UNL1       -0.2044
      8 C          62.4413   85.9148    9.3955 C.3     1  UNL1        0.0338
      9 C          62.4913   85.4928   10.8340 C.3     1  UNL1        0.1308
     10 C          62.4059   85.5705   12.3295 C.2     1  UNL1        0.0358
     11 C          62.6931   84.3557   13.1613 C.2     1  UNL1        0.1594
     12 O          63.0657   83.0632   12.4975 O.2     1  UNL1       -0.4276
     13 C          63.1511   82.9855   11.0020 C.2     1  UNL1        0.2815
     14 N          63.5237   81.6929   10.3382 N.pl3   1  UNL1       -0.3130
     15 N          62.8639   84.2002   10.1702 N.2     1  UNL1       -0.2196
     16 H          63.7122   80.8956   10.8841 H       1  UNL1        0.1466
     17 H          63.5797   81.6419    9.3566 H       1  UNL1        0.1466
     18 C          62.6076   84.4334   14.6569 C.3     1  UNL1        0.2567
     19 F          62.2299   83.2179   15.4507 F       1  UNL1       -0.2256
     20 N          63.6666   90.3329   12.3147 N.am    1  UNL1       -0.2791
     21 C          64.2872   90.0738   13.6554 C.2     1  UNL1        0.2672
     22 O          63.9301   88.8336   14.4201 O.2     1  UNL1       -0.2682
     23 H          63.9010   91.1468   11.8128 H       1  UNL1        0.1552
     24 C          65.2648   91.0547   14.2316 C.ar    1  UNL1        0.1348
     25 C          66.4983   91.4242   13.4622 C.ar    1  UNL1        0.0245
     26 C          67.4759   92.4052   14.0384 C.ar    1  UNL1        0.0135
     27 C          67.2201   93.0166   15.3840 C.ar    1  UNL1        0.0876
     28 C          65.9866   92.6471   16.1534 C.ar    1  UNL1        0.1092
     29 N          65.0090   91.6661   15.5773 N.ar    1  UNL1       -0.2385
     30 C          68.1977   93.9975   15.9602 C.1     1  UNL1        0.1020
     31 N          69.1753   94.9785   16.5364 N.1     1  UNL1       -0.1908
@<TRIPOS>BOND
     1     9     8    1
     2     9     1    1
     3     1     2   ar
     4     2     3   ar
     5     3    20    1
     6    20    21   am
     7    21    22    2
     8    21    24    1
     9    24    25   ar
    10    25    26   ar
    11    26    27   ar
    12    27    30    1
    13    30    31    3
    14    27    28   ar
    15    28    29   ar
    16     3     4   ar
    17     4     5   ar
    18     5     6   ar
    19     6     7    1
    20     9    10    1
    21    10    11    2
    22    11    18    1
    23    18    19    1
    24    11    12    1
    25    12    13    1
    26    13    14    1
    27    13    15    2
    28    15     9    1
    29     6     1   ar
    30    29    24   ar
    31    20    23    1
    32    14    16    1
    33    14    17    1
@<TRIPOS>MOLECULE
*****
 31 33 0 0 0
SMALL
GASTEIGER

@<TRIPOS>ATOM
      1 C          63.7953   90.4252   12.5059 C.ar    1  UNL1        0.0305
      2 C          63.5421   88.9536   12.6485 C.ar    1  UNL1        0.0148
      3 C          62.7975   88.2135   11.5772 C.ar    1  UNL1        0.0505
      4 C          62.3060   88.9450   10.3633 C.ar    1  UNL1        0.0170
      5 C          62.5592   90.4165   10.2207 C.ar    1  UNL1        0.0307
      6 C          63.3038   91.1566   11.2920 C.ar    1  UNL1        0.1383
      7 F          63.5570   92.6283   11.1495 F       1  UNL1       -0.2044
      8 C          63.4737   90.5116   14.4053 C.3     1  UNL1        0.0338
      9 C          64.5399   91.1654   13.5772 C.3     1  UNL1        0.1308
     10 C          65.3475   91.5621   12.3771 C.2     1  UNL1        0.0358
     11 C          66.5294   92.4720   12.5358 C.2     1  UNL1        0.1594
     12 O          66.9038   92.9851   13.8948 O.2     1  UNL1       -0.4276
     13 C          66.0962   92.5883   15.0949 C.2     1  UNL1        0.2815
     14 N          66.4705   93.1014   16.4538 N.pl3   1  UNL1       -0.3130
     15 N          64.9143   91.6785   14.9362 N.2     1  UNL1       -0.2196
     16 H          67.2463   93.6986   16.5580 H       1  UNL1        0.1466
     17 H          65.9405   92.8410   17.2415 H       1  UNL1        0.1466
     18 C          67.3370   92.8687   11.3356 C.3     1  UNL1        0.2567
     19 F          68.2221   91.8626   10.6613 F       1  UNL1       -0.2256
     20 N          62.5442   86.7419   11.7197 N.am    1  UNL1       -0.2791
     21 C          63.1225   85.9905   12.8821 C.2     1  UNL1        0.2672
     22 O          63.9540   86.7108   13.9018 O.2     1  UNL1       -0.2682
     23 H          61.9985   86.2692   11.0504 H       1  UNL1        0.1552
     24 C          62.8693   84.5190   13.0246 C.ar    1  UNL1        0.1348
     25 C          62.9230   83.6284   11.8188 C.ar    1  UNL1        0.0245
     26 C          62.6698   82.1568   11.9614 C.ar    1  UNL1        0.0135
     27 C          62.3630   81.5758   13.3098 C.ar    1  UNL1        0.0876
     28 C          62.3093   82.4663   14.5157 C.ar    1  UNL1        0.1092
     29 N          62.5625   83.9379   14.3731 N.ar    1  UNL1       -0.2385
     30 C          62.1098   80.1042   13.4524 C.1     1  UNL1        0.1020
     31 N          61.8566   78.6326   13.5950 N.1     1  UNL1       -0.1908
@<TRIPOS>BOND
     1     9     8    1
     2     9     1    1
     3     1     2   ar
     4     2     3   ar
     5     3    20    1
     6    20    21   am
     7    21    22    2
     8    21    24    1
     9    24    25   ar
    10    25    26   ar
    11    26    27   ar
    12    27    30    1
    13    30    31    3
    14    27    28   ar
    15    28    29   ar
    16     3     4   ar
    17     4     5   ar
    18     5     6   ar
    19     6     7    1
    20     9    10    1
    21    10    11    2
    22    11    18    1
    23    18    19    1
    24    11    12    1
    25    12    13    1
    26    13    14    1
    27    13    15    2
    28    15     9    1
    29     6     1   ar
    30    29    24   ar
    31    20    23    1
    32    14    16    1
    33    14    17    1
@<TRIPOS>MOLECULE
*****
 31 33 0 0 0
SMALL
GASTEIGER

@<TRIPOS>ATOM
      1 C          61.1594   87.7340    9.7434 C.ar    1  UNL1        0.0305
      2 C          62.3154   88.5212   10.2856 C.ar    1  UNL1        0.0148
      3 C          62.0957   89.5121   11.3900 C.ar    1  UNL1        0.0505
      4 C          60.7201   89.7158   11.9522 C.ar    1  UNL1        0.0170
      5 C          59.5641   88.9286   11.4100 C.ar    1  UNL1        0.0307
      6 C          59.7838   87.9377   10.3056 C.ar    1  UNL1        0.1383
      7 F          58.6278   87.1505    9.7633 F       1  UNL1       -0.2044
      8 C          60.4377   87.6902    7.9557 C.3     1  UNL1        0.0338
      9 C          61.3791   86.7430    8.6389 C.3     1  UNL1        0.1308
     10 C          62.2442   86.1401    9.7056 C.2     1  UNL1        0.0358
     11 C          63.0019   84.8751    9.4307 C.2     1  UNL1        0.1594
     12 O          62.8946   84.2131    8.0889 O.2     1  UNL1       -0.4276
     13 C          62.0296   84.8161    7.0222 C.2     1  UNL1        0.2815
     14 N          61.9223   84.1541    5.6804 N.pl3   1  UNL1       -0.3130
     15 N          61.2718   86.0810    7.2971 N.2     1  UNL1       -0.2196
     16 H          62.4196   83.3238    5.4999 H       1  UNL1        0.1466
     17 H          61.3545   84.5499    4.9802 H       1  UNL1        0.1466
     18 C          63.8670   84.2721   10.4976 C.3     1  UNL1        0.2567
     19 F          64.6204   83.0040   10.2244 F       1  UNL1       -0.2256
     20 N          63.2517   90.2993   11.9323 N.am    1  UNL1       -0.2791
     21 C          63.4503   90.4157   13.4146 C.2     1  UNL1        0.2672
     22 O          62.4928   89.7449   14.3545 O.2     1  UNL1       -0.2682
     23 H          63.8801   90.7395   11.3154 H       1  UNL1        0.1552
     24 C          64.6062   91.2029   13.9569 C.ar    1  UNL1        0.1348
     25 C          65.7295   91.6080   13.0491 C.ar    1  UNL1        0.0245
     26 C          66.8854   92.3952   13.5915 C.ar    1  UNL1        0.0135
     27 C          66.9181   92.7773   15.0416 C.ar    1  UNL1        0.0876
     28 C          65.7948   92.3723   15.9494 C.ar    1  UNL1        0.1092
     29 N          64.6389   91.5851   15.4071 N.ar    1  UNL1       -0.2385
     30 C          68.0740   93.5645   15.5839 C.1     1  UNL1        0.1020
     31 N          69.2300   94.3517   16.1263 N.1     1  UNL1       -0.1908
@<TRIPOS>BOND
     1     9     8    1
     2     9     1    1
     3     1     2   ar
     4     2     3   ar
     5     3    20    1
     6    20    21   am
     7    21    22    2
     8    21    24    1
     9    24    25   ar
    10    25    26   ar
    11    26    27   ar
    12    27    30    1
    13    30    31    3
    14    27    28   ar
    15    28    29   ar
    16     3     4   ar
    17     4     5   ar
    18     5     6   ar
    19     6     7    1
    20     9    10    1
    21    10    11    2
    22    11    18    1
    23    18    19    1
    24    11    12    1
    25    12    13    1
    26    13    14    1
    27    13    15    2
    28    15     9    1
    29     6     1   ar
    30    29    24   ar
    31    20    23    1
    32    14    16    1
    33    14    17    1
@<TRIPOS>MOLECULE
*****
 31 33 0 0 0
SMALL
GASTEIGER

@<TRIPOS>ATOM
      1 C          63.8189   90.5719   12.2514 C.ar    1  UNL1        0.0305
      2 C          63.5438   89.1116   12.4561 C.ar    1  UNL1        0.0148
      3 C          62.7663   88.3438   11.4286 C.ar    1  UNL1        0.0505
      4 C          62.2638   89.0361   10.1965 C.ar    1  UNL1        0.0170
      5 C          62.5389   90.4964    9.9918 C.ar    1  UNL1        0.0307
      6 C          63.3164   91.2643   11.0193 C.ar    1  UNL1        0.1383
      7 F          63.5916   92.7246   10.8147 F       1  UNL1       -0.2044
      8 C          65.1706   91.9284   12.0243 C.3     1  UNL1        0.0338
      9 C          64.5965   91.3398   13.2790 C.3     1  UNL1        0.1308
     10 C          63.7523   90.4847   14.1767 C.2     1  UNL1        0.0358
     11 C          63.8851   90.6018   15.6662 C.2     1  UNL1        0.1594
     12 O          64.8620   91.5741   16.2580 O.2     1  UNL1       -0.4276
     13 C          65.7062   92.4293   15.3602 C.2     1  UNL1        0.2815
     14 N          66.6832   93.4016   15.9520 N.pl3   1  UNL1       -0.3130
     15 N          65.5735   92.3122   13.8707 N.2     1  UNL1       -0.2196
     16 H          66.7703   93.4785   16.9296 H       1  UNL1        0.1466
     17 H          67.2372   93.9629   15.3627 H       1  UNL1        0.1466
     18 C          63.0408   89.7465   16.5640 C.3     1  UNL1        0.2567
     19 F          63.3916   88.3029   16.7715 F       1  UNL1       -0.2256
     20 N          62.4912   86.8834   11.6332 N.am    1  UNL1       -0.2791
     21 C          63.1174   86.1566   12.7863 C.2     1  UNL1        0.2672
     22 O          64.0188   86.8902   13.7348 O.2     1  UNL1       -0.2682
     23 H          61.8996   86.4020   11.0107 H       1  UNL1        0.1552
     24 C          62.8423   84.6964   12.9909 C.ar    1  UNL1        0.1348
     25 C          62.8703   83.7569   11.8219 C.ar    1  UNL1        0.0245
     26 C          62.5952   82.2965   12.0266 C.ar    1  UNL1        0.0135
     27 C          62.2922   81.7758   13.4003 C.ar    1  UNL1        0.0876
     28 C          62.2643   82.7153   14.5693 C.ar    1  UNL1        0.1092
     29 N          62.5393   84.1755   14.3646 N.ar    1  UNL1       -0.2385
     30 C          62.0171   80.3155   13.6049 C.1     1  UNL1        0.1020
     31 N          61.7420   78.8552   13.8096 N.1     1  UNL1       -0.1908
@<TRIPOS>BOND
     1     9     8    1
     2     9     1    1
     3     1     2   ar
     4     2     3   ar
     5     3    20    1
     6    20    21   am
     7    21    22    2
     8    21    24    1
     9    24    25   ar
    10    25    26   ar
    11    26    27   ar
    12    27    30    1
    13    30    31    3
    14    27    28   ar
    15    28    29   ar
    16     3     4   ar
    17     4     5   ar
    18     5     6   ar
    19     6     7    1
    20     9    10    1
    21    10    11    2
    22    11    18    1
    23    18    19    1
    24    11    12    1
    25    12    13    1
    26    13    14    1
    27    13    15    2
    28    15     9    1
    29     6     1   ar
    30    29    24   ar
    31    20    23    1
    32    14    16    1
    33    14    17    1
