@<TRIPOS>MOLECULE
*****
 29 33 0 0 0
SMALL
GASTEIGER

@<TRIPOS>ATOM
      1 C          64.1994   90.1478   13.0238 C.3     1  UNL1        0.0578
      2 C          63.2882   90.6353   11.9367 C.3     1  UNL1        0.0163
      3 C          62.5688   89.4485   11.3678 C.3     1  UNL1        0.0058
      4 C          63.0354   88.2273   12.1034 C.3     1  UNL1        0.0240
      5 C          63.6566   87.1778   12.9767 C.3     1  UNL1        0.0301
      6 C          63.4106   85.6981   12.9799 C.ar    1  UNL1       -0.0255
      7 C          64.2430   85.0064   14.0184 C.ar    1  UNL1       -0.0046
      8 C          64.1474   83.5191   14.1876 C.ar    1  UNL1       -0.0003
      9 C          63.2193   82.7234   13.3183 C.ar    1  UNL1       -0.0003
     10 C          62.3869   83.4151   12.2798 C.ar    1  UNL1       -0.0042
     11 C          62.4825   84.9024   12.1106 C.ar    1  UNL1       -0.0217
     12 C          61.5713   85.3901   11.0234 C.3     1  UNL1        0.0520
     13 C          61.3631   86.7936   10.5369 C.ar    1  UNL1       -0.0218
     14 C          60.3567   86.8450    9.4259 C.ar    1  UNL1       -0.0042
     15 C          60.0018   88.1590    8.7955 C.ar    1  UNL1       -0.0003
     16 C          60.6534   89.4217    9.2761 C.ar    1  UNL1       -0.0003
     17 C          61.6598   89.3703   10.3872 C.ar    1  UNL1       -0.0046
     18 C          62.0147   88.0563   11.0176 C.ar    1  UNL1       -0.0261
     19 C          64.0432   88.6595   13.1269 C.3     1  UNL1        0.0203
     20 C          66.9235   92.7017   15.5353 C.3     1  UNL1        0.1678
     21 F          66.9821   93.3223   16.8996 F       1  UNL1       -0.2342
     22 C          65.6112   92.2335   16.0909 C.3     1  UNL1        0.0554
     23 C          64.7031   91.3823   15.2538 C.3     1  UNL1        0.0752
     24 N          65.1074   90.9991   13.8610 N.3     1  UNL1       -0.2738
     25 C          66.4197   91.4673   13.3054 C.3     1  UNL1        0.0752
     26 C          67.3277   92.3185   14.1425 C.3     1  UNL1        0.0554
     27 O          69.3091   92.8666   14.5196 O.co2   1  UNL1       -0.5465
     28 C          68.2561   93.3853   15.4535 C.2     1  UNL1        0.0798
     29 O          68.5357   94.5878   16.3056 O.co2   1  UNL1       -0.5465
@<TRIPOS>UNITY_ATOM_ATTR
27 1
charge -1
@<TRIPOS>BOND
     1    27    28   ar
     2    28    29   ar
     3    28    20    1
     4    20    21    1
     5    20    22    1
     6    22    23    1
     7    23    24    1
     8    24     1    1
     9     1     2    1
    10     2     3    1
    11     4     3    1
    12     4     5    1
    13     5     6    1
    14     6     7   ar
    15     7     8   ar
    16     8     9   ar
    17     9    10   ar
    18    10    11   ar
    19    11    12    1
    20    12    13    1
    21    13    14   ar
    22    14    15   ar
    23    15    16   ar
    24    16    17   ar
    25    17    18   ar
    26     4    19    1
    27    24    25    1
    28    25    26    1
    29    26    20    1
    30    19     1    1
    31    18     4    1
    32    11     6   ar
    33    18    13   ar
@<TRIPOS>MOLECULE
*****
 29 33 0 0 0
SMALL
GASTEIGER

@<TRIPOS>ATOM
      1 C          62.9090   84.1025   12.0302 C.3     1  UNL1        0.0578
      2 C          63.6438   84.8526   13.1014 C.3     1  UNL1        0.0163
      3 C          63.4245   86.3189   12.8742 C.3     1  UNL1        0.0058
      4 C          62.5541   86.4750   11.6625 C.3     1  UNL1        0.0240
      5 C          61.6883   86.3625   10.4428 C.3     1  UNL1        0.0301
      6 C          61.0671   87.4611    9.6321 C.ar    1  UNL1       -0.0255
      7 C          60.2706   86.9129    8.4854 C.ar    1  UNL1       -0.0046
      8 C          59.5651   87.8472    7.5477 C.ar    1  UNL1       -0.0003
      9 C          59.6563   89.3298    7.7567 C.ar    1  UNL1       -0.0003
     10 C          60.4528   89.8780    8.9033 C.ar    1  UNL1       -0.0042
     11 C          61.1582   88.9437    9.8410 C.ar    1  UNL1       -0.0217
     12 C          61.8931   89.6938   10.9123 C.3     1  UNL1        0.0520
     13 C          62.7183   89.1466   12.0391 C.ar    1  UNL1       -0.0218
     14 C          63.2821   90.2460   12.8896 C.ar    1  UNL1       -0.0042
     15 C          64.1400   89.9129   14.0741 C.ar    1  UNL1       -0.0003
     16 C          64.4342   88.4805   14.4080 C.ar    1  UNL1       -0.0003
     17 C          63.8704   87.3810   13.5574 C.ar    1  UNL1       -0.0046
     18 C          63.0124   87.7141   12.3729 C.ar    1  UNL1       -0.0261
     19 C          62.2355   85.1052   11.1409 C.3     1  UNL1        0.0203
     20 C          62.7527   79.6292   11.5660 C.3     1  UNL1        0.1678
     21 F          62.4990   78.3973   12.3833 F       1  UNL1       -0.2342
     22 C          62.4907   80.2539   12.9043 C.3     1  UNL1        0.0554
     23 C          62.5429   81.7450   13.0591 C.3     1  UNL1        0.0752
     24 N          62.8569   82.6114   11.8755 N.3     1  UNL1       -0.2738
     25 C          63.1189   81.9866   10.5372 C.3     1  UNL1        0.0752
     26 C          63.0667   80.4956   10.3824 C.3     1  UNL1        0.0554
     27 O          62.9861   77.1289   10.8996 O.co2   1  UNL1       -0.5465
     28 C          62.9265   78.5766   10.5115 C.2     1  UNL1        0.0798
     29 O          63.0408   78.9718    9.0690 O.co2   1  UNL1       -0.5465
@<TRIPOS>UNITY_ATOM_ATTR
27 1
charge -1
@<TRIPOS>BOND
     1    27    28   ar
     2    28    29   ar
     3    28    20    1
     4    20    21    1
     5    20    22    1
     6    22    23    1
     7    23    24    1
     8    24     1    1
     9     1     2    1
    10     2     3    1
    11     4     3    1
    12     4     5    1
    13     5     6    1
    14     6     7   ar
    15     7     8   ar
    16     8     9   ar
    17     9    10   ar
    18    10    11   ar
    19    11    12    1
    20    12    13    1
    21    13    14   ar
    22    14    15   ar
    23    15    16   ar
    24    16    17   ar
    25    17    18   ar
    26     4    19    1
    27    24    25    1
    28    25    26    1
    29    26    20    1
    30    19     1    1
    31    18     4    1
    32    11     6   ar
    33    18    13   ar
@<TRIPOS>MOLECULE
*****
 29 33 0 0 0
SMALL
GASTEIGER

@<TRIPOS>ATOM
      1 C          62.6564   85.1765   12.5487 C.3     1  UNL1        0.0578
      2 C          63.4552   86.2081   13.2886 C.3     1  UNL1        0.0163
      3 C          63.2198   87.5357   12.6314 C.3     1  UNL1        0.0058
      4 C          62.2754   87.3245   11.4853 C.3     1  UNL1        0.0240
      5 C          61.3356   86.8554   10.4145 C.3     1  UNL1        0.0301
      6 C          60.6633   87.6600    9.3418 C.ar    1  UNL1       -0.0255
      7 C          59.7978   86.7979    8.4713 C.ar    1  UNL1       -0.0046
      8 C          59.0338   87.4085    7.3340 C.ar    1  UNL1       -0.0003
      9 C          59.1355   88.8810    7.0671 C.ar    1  UNL1       -0.0003
     10 C          60.0010   89.7431    7.9375 C.ar    1  UNL1       -0.0042
     11 C          60.7650   89.1325    9.0748 C.ar    1  UNL1       -0.0217
     12 C          61.5639   90.1641    9.8148 C.3     1  UNL1        0.0520
     13 C          62.4585   89.9781   11.0043 C.ar    1  UNL1       -0.0218
     14 C          63.0725   91.2765   11.4368 C.ar    1  UNL1       -0.0042
     15 C          64.0031   91.3113   12.6127 C.ar    1  UNL1       -0.0003
     16 C          64.3197   90.0476   13.3562 C.ar    1  UNL1       -0.0003
     17 C          63.7057   88.7491   12.9237 C.ar    1  UNL1       -0.0046
     18 C          62.7752   88.7143   11.7478 C.ar    1  UNL1       -0.0261
     19 C          61.9271   85.8665   11.4342 C.3     1  UNL1        0.0203
     20 C          62.4784   80.7828   13.5047 C.3     1  UNL1        0.1678
     21 F          62.2447   79.8691   14.6711 F       1  UNL1       -0.2342
     22 C          62.2544   81.7957   14.5881 C.3     1  UNL1        0.0554
     23 C          62.3137   83.2602   14.2694 C.3     1  UNL1        0.0752
     24 N          62.5970   83.7119   12.8674 N.3     1  UNL1       -0.2738
     25 C          62.8211   82.6989   11.7840 C.3     1  UNL1        0.0752
     26 C          62.7618   81.2344   12.1026 C.3     1  UNL1        0.0554
     27 O          62.7514   79.3819   11.3337 O.co2   1  UNL1       -0.5465
     28 C          62.6213   79.4525   12.8264 C.2     1  UNL1        0.0798
     29 O          62.6340   78.1929   13.6408 O.co2   1  UNL1       -0.5465
@<TRIPOS>UNITY_ATOM_ATTR
27 1
charge -1
@<TRIPOS>BOND
     1    27    28   ar
     2    28    29   ar
     3    28    20    1
     4    20    21    1
     5    20    22    1
     6    22    23    1
     7    23    24    1
     8    24     1    1
     9     1     2    1
    10     2     3    1
    11     4     3    1
    12     4     5    1
    13     5     6    1
    14     6     7   ar
    15     7     8   ar
    16     8     9   ar
    17     9    10   ar
    18    10    11   ar
    19    11    12    1
    20    12    13    1
    21    13    14   ar
    22    14    15   ar
    23    15    16   ar
    24    16    17   ar
    25    17    18   ar
    26     4    19    1
    27    24    25    1
    28    25    26    1
    29    26    20    1
    30    19     1    1
    31    18     4    1
    32    11     6   ar
    33    18    13   ar
