@<TRIPOS>MOLECULE
*****
 46 52 0 0 0
SMALL
GASTEIGER

@<TRIPOS>ATOM
      1 N          59.4432   94.6371   -5.1926 N.3     1  UNL1       -0.2676
      2 C          60.9103   94.9153   -5.0507 C.3     1  UNL1        0.0746
      3 C          61.6140   94.5927   -3.7659 C.3     1  UNL1        0.0449
      4 C          60.8505   93.9919   -2.6230 C.3     1  UNL1        0.1391
      5 C          59.3834   93.7137   -2.7649 C.3     1  UNL1        0.0449
      6 C          58.6798   94.0364   -4.0497 C.3     1  UNL1        0.0746
      7 C          60.2223   93.3917   -1.4002 C.2     1  UNL1        0.2529
      8 O          58.7800   93.0088   -1.2476 O.2     1  UNL1       -0.2724
      9 N          61.2895   93.2417   -0.3568 N.am    1  UNL1       -0.1907
     10 C          62.5774   93.7492   -0.9348 C.2     1  UNL1        0.3219
     11 O          63.9036   93.7864   -0.2351 O.2     1  UNL1       -0.2512
     12 N          62.3061   94.2128   -2.3353 N.am    1  UNL1       -0.2222
     13 C          63.3133   94.7951   -3.2820 C.ar    1  UNL1        0.1453
     14 C          64.0669   93.8992   -4.2197 C.ar    1  UNL1        0.0922
     15 C          65.0742   94.4816   -5.1664 C.ar    1  UNL1        0.2259
     16 O          65.8278   93.5856   -6.1041 O.3     1  UNL1       -0.4919
     17 N          65.3279   95.9600   -5.1754 N.ar    1  UNL1       -0.1894
     18 C          64.5744   96.8559   -4.2376 C.ar    1  UNL1        0.2027
     19 N          63.5671   96.2735   -3.2910 N.ar    1  UNL1       -0.2084
     20 H          65.6693   92.6622   -6.0985 H       1  UNL1        0.2938
     21 C          61.1019   92.6824    1.0223 C.ar    1  UNL1        0.0622
     22 C          59.8089   92.9005    1.7505 C.ar    1  UNL1        0.0154
     23 C          59.6212   92.3412    3.1296 C.ar    1  UNL1        0.0013
     24 C          60.7266   91.5638    3.7805 C.ar    1  UNL1        0.0001
     25 C          62.0196   91.3457    3.0522 C.ar    1  UNL1        0.0013
     26 C          62.2073   91.9049    1.6731 C.ar    1  UNL1        0.0154
     27 C          60.5389   91.0045    5.1596 C.ar    1  UNL1        0.0001
     28 C          59.2113   90.4353    5.5638 C.ar    1  UNL1        0.0013
     29 C          59.0236   89.8760    6.9429 C.ar    1  UNL1        0.0145
     30 C          60.1636   89.8859    7.9179 C.ar    1  UNL1        0.0480
     31 C          61.4913   90.4551    7.5136 C.ar    1  UNL1        0.0145
     32 C          61.6789   91.0144    6.1344 C.ar    1  UNL1        0.0013
     33 N          59.9760   89.3266    9.2970 N.pl3   1  UNL1       -0.3028
     34 C          60.1455   87.8561    9.5394 C.3     1  UNL1        0.1231
     35 C          59.9578   87.2968   10.9185 C.3     1  UNL1        0.1636
     36 O          59.6006   88.2081   12.0552 O.3     1  UNL1       -0.3501
     37 C          59.4311   89.6786   11.8127 C.3     1  UNL1        0.1636
     38 C          59.6188   90.2379   10.4336 C.3     1  UNL1        0.1231
     39 C          58.7394   94.9598   -6.4774 C.3     1  UNL1        0.1183
     40 C          56.8006   92.9431   -7.5610 C.3     1  UNL1        0.0323
     41 C          56.2995   94.2473   -7.0151 C.ar    1  UNL1       -0.0069
     42 C          54.8290   94.5431   -7.0110 C.ar    1  UNL1       -0.0015
     43 C          54.3279   95.8473   -6.4651 C.ar    1  UNL1        0.0203
     44 C          55.2972   96.8556   -5.9233 C.ar    1  UNL1        0.0985
     45 N          56.7678   96.5598   -5.9274 N.ar    1  UNL1       -0.2471
     46 C          57.2689   95.2556   -6.4733 C.ar    1  UNL1        0.0712
@<TRIPOS>BOND
     1    40    41    1
     2    41    42   ar
     3    42    43   ar
     4    43    44   ar
     5    44    45   ar
     6    45    46   ar
     7    46    39    1
     8    39     1    1
     9     1     2    1
    10     2     3    1
    11     3     4    1
    12     4     5    1
    13     5     6    1
    14     4     7    1
    15     7     8    2
    16     7     9   am
    17     9    21    1
    18    21    22   ar
    19    22    23   ar
    20    23    24   ar
    21    24    27    1
    22    27    28   ar
    23    28    29   ar
    24    29    30   ar
    25    30    33    1
    26    33    34    1
    27    34    35    1
    28    35    36    1
    29    36    37    1
    30    37    38    1
    31    30    31   ar
    32    31    32   ar
    33    24    25   ar
    34    25    26   ar
    35     9    10   am
    36    10    11    2
    37    10    12   am
    38    12    13    1
    39    13    14   ar
    40    14    15   ar
    41    15    16    1
    42    15    17   ar
    43    17    18   ar
    44    18    19   ar
    45    46    41   ar
    46     6     1    1
    47    26    21   ar
    48    19    13   ar
    49    12     4    1
    50    32    27   ar
    51    38    33    1
    52    16    20    1
@<TRIPOS>MOLECULE
*****
 46 52 0 0 0
SMALL
GASTEIGER

@<TRIPOS>ATOM
      1 N          63.0985   95.2751   -3.9156 N.3     1  UNL1       -0.2676
      2 C          61.6139   95.2844   -4.1293 C.3     1  UNL1        0.0746
      3 C          60.7005   94.7408   -3.0709 C.3     1  UNL1        0.0449
      4 C          61.2717   94.1880   -1.7989 C.3     1  UNL1        0.1391
      5 C          62.7563   94.1787   -1.5852 C.3     1  UNL1        0.0449
      6 C          63.6698   94.7223   -2.6436 C.3     1  UNL1        0.0746
      7 C          61.6951   93.6060   -0.4828 C.2     1  UNL1        0.2529
      8 O          63.1062   93.4653    0.0059 O.2     1  UNL1       -0.2724
      9 N          60.4595   93.1892    0.2587 N.am    1  UNL1       -0.1907
     10 C          59.2725   93.5138   -0.5991 C.2     1  UNL1        0.3219
     11 O          57.8359   93.2648   -0.2471 O.2     1  UNL1       -0.2512
     12 N          59.7744   94.1310   -1.8707 N.am    1  UNL1       -0.2222
     13 C          58.9279   94.6077   -3.0136 C.ar    1  UNL1        0.1453
     14 C          58.5953   93.6752   -4.1405 C.ar    1  UNL1        0.0922
     15 C          57.7487   94.1519   -5.2833 C.ar    1  UNL1        0.2259
     16 O          57.4161   93.2195   -6.4102 O.3     1  UNL1       -0.4919
     17 N          57.2347   95.5611   -5.2993 N.ar    1  UNL1       -0.1894
     18 C          57.5674   96.4935   -4.1724 C.ar    1  UNL1        0.2027
     19 N          58.4139   96.0168   -3.0296 N.ar    1  UNL1       -0.2084
     20 H          57.7371   92.3393   -6.4003 H       1  UNL1        0.2938
     21 C          60.4181   92.5587    1.6191 C.ar    1  UNL1        0.0622
     22 C          59.1367   92.5400    2.3984 C.ar    1  UNL1        0.0154
     23 C          59.0954   91.9095    3.7588 C.ar    1  UNL1        0.0013
     24 C          60.3355   91.2978    4.3399 C.ar    1  UNL1        0.0001
     25 C          61.6170   91.3165    3.5606 C.ar    1  UNL1        0.0013
     26 C          61.6583   91.9470    2.2002 C.ar    1  UNL1        0.0154
     27 C          60.2942   90.6673    5.7003 C.ar    1  UNL1        0.0001
     28 C          59.1536   89.7684    6.0761 C.ar    1  UNL1        0.0013
     29 C          59.1123   89.1379    7.4365 C.ar    1  UNL1        0.0145
     30 C          60.2116   89.4062    8.4212 C.ar    1  UNL1        0.0480
     31 C          61.3522   90.3051    8.0455 C.ar    1  UNL1        0.0145
     32 C          61.3934   90.9356    6.6850 C.ar    1  UNL1        0.0013
     33 N          60.1703   88.7757    9.7817 N.pl3   1  UNL1       -0.3028
     34 C          60.9226   87.5045   10.0423 C.3     1  UNL1        0.1231
     35 C          60.8813   86.8740   11.4027 C.3     1  UNL1        0.1636
     36 O          60.0876   87.5147   12.5025 O.3     1  UNL1       -0.3501
     37 C          59.3353   88.7860   12.2418 C.3     1  UNL1        0.1636
     38 C          59.3766   89.4165   10.8814 C.3     1  UNL1        0.1231
     39 C          64.0120   95.8187   -4.9740 C.3     1  UNL1        0.1183
     40 C          66.3100   96.8535   -6.6015 C.3     1  UNL1        0.0323
     41 C          65.9521   95.3976   -6.6500 C.ar    1  UNL1       -0.0069
     42 C          66.7431   94.4591   -7.5122 C.ar    1  UNL1       -0.0015
     43 C          66.3852   93.0032   -7.5607 C.ar    1  UNL1        0.0203
     44 C          65.2363   92.4859   -6.7470 C.ar    1  UNL1        0.0985
     45 N          64.4452   93.4244   -5.8847 N.ar    1  UNL1       -0.2471
     46 C          64.8031   94.8802   -5.8362 C.ar    1  UNL1        0.0712
@<TRIPOS>BOND
     1    40    41    1
     2    41    42   ar
     3    42    43   ar
     4    43    44   ar
     5    44    45   ar
     6    45    46   ar
     7    46    39    1
     8    39     1    1
     9     1     2    1
    10     2     3    1
    11     3     4    1
    12     4     5    1
    13     5     6    1
    14     4     7    1
    15     7     8    2
    16     7     9   am
    17     9    21    1
    18    21    22   ar
    19    22    23   ar
    20    23    24   ar
    21    24    27    1
    22    27    28   ar
    23    28    29   ar
    24    29    30   ar
    25    30    33    1
    26    33    34    1
    27    34    35    1
    28    35    36    1
    29    36    37    1
    30    37    38    1
    31    30    31   ar
    32    31    32   ar
    33    24    25   ar
    34    25    26   ar
    35     9    10   am
    36    10    11    2
    37    10    12   am
    38    12    13    1
    39    13    14   ar
    40    14    15   ar
    41    15    16    1
    42    15    17   ar
    43    17    18   ar
    44    18    19   ar
    45    46    41   ar
    46     6     1    1
    47    26    21   ar
    48    19    13   ar
    49    12     4    1
    50    32    27   ar
    51    38    33    1
    52    16    20    1
@<TRIPOS>MOLECULE
*****
 46 52 0 0 0
SMALL
GASTEIGER

@<TRIPOS>ATOM
      1 N          61.7408   85.1128   10.6974 N.3     1  UNL1       -0.2676
      2 C          61.2499   86.2008   11.6058 C.3     1  UNL1        0.0746
      3 C          60.7831   87.5048   11.0300 C.3     1  UNL1        0.0449
      4 C          60.8071   87.7208    9.5458 C.3     1  UNL1        0.1391
      5 C          61.2980   86.6327    8.6375 C.3     1  UNL1        0.0449
      6 C          61.7649   85.3287    9.2133 C.3     1  UNL1        0.0746
      7 C          60.7733   88.0799    8.0898 C.2     1  UNL1        0.2529
      8 O          61.2003   87.1981    6.9540 O.2     1  UNL1       -0.2724
      9 N          60.2374   89.4758    7.9690 N.am    1  UNL1       -0.1907
     10 C          59.9401   89.9793    9.3504 C.2     1  UNL1        0.3219
     11 O          59.3876   91.3301    9.6965 O.2     1  UNL1       -0.2512
     12 N          60.2922   88.8947   10.3249 N.am    1  UNL1       -0.2222
     13 C          60.1537   88.9705   11.8165 C.ar    1  UNL1        0.1453
     14 C          61.3152   89.4133   12.6561 C.ar    1  UNL1        0.0922
     15 C          61.1766   89.4891   14.1477 C.ar    1  UNL1        0.2259
     16 O          62.3381   89.9319   14.9873 O.3     1  UNL1       -0.4919
     17 N          59.8766   89.1221   14.7999 N.ar    1  UNL1       -0.1894
     18 C          58.7151   88.6793   13.9604 C.ar    1  UNL1        0.2027
     19 N          58.8537   88.6035   12.4687 N.ar    1  UNL1       -0.2084
     20 H          63.1502   90.1612   14.5800 H       1  UNL1        0.2938
     21 C          60.0344   90.2348    6.6913 C.ar    1  UNL1        0.0622
     22 C          61.2174   90.6326    5.8593 C.ar    1  UNL1        0.0154
     23 C          61.0144   91.3916    4.5816 C.ar    1  UNL1        0.0013
     24 C          59.6286   91.7529    4.1358 C.ar    1  UNL1        0.0001
     25 C          58.4455   91.3550    4.9678 C.ar    1  UNL1        0.0013
     26 C          58.6485   90.5960    6.2456 C.ar    1  UNL1        0.0154
     27 C          59.4256   92.5119    2.8581 C.ar    1  UNL1        0.0001
     28 C          58.4380   92.0196    1.8420 C.ar    1  UNL1        0.0013
     29 C          58.2351   92.7786    0.5643 C.ar    1  UNL1        0.0145
     30 C          59.0198   94.0300    0.3025 C.ar    1  UNL1        0.0480
     31 C          60.0074   94.5223    1.3185 C.ar    1  UNL1        0.0145
     32 C          60.2103   93.7632    2.5964 C.ar    1  UNL1        0.0013
     33 N          58.8168   94.7891   -0.9752 N.pl3   1  UNL1       -0.3028
     34 C          57.4283   95.0770   -1.4641 C.3     1  UNL1        0.1231
     35 C          57.2253   95.8360   -2.7419 C.3     1  UNL1        0.1636
     36 O          58.4110   96.3071   -3.5307 O.3     1  UNL1       -0.3501
     37 C          59.7995   96.0192   -3.0419 C.3     1  UNL1        0.1636
     38 C          60.0025   95.2601   -1.7641 C.3     1  UNL1        0.1231
     39 C          62.2077   83.8087   11.2732 C.3     1  UNL1        0.1183
     40 C          61.9118   81.4231   13.0682 C.3     1  UNL1        0.0323
     41 C          62.7511   82.5883   13.5016 C.ar    1  UNL1       -0.0069
     42 C          63.4425   82.5607   14.8324 C.ar    1  UNL1       -0.0015
     43 C          64.2818   83.7259   15.2658 C.ar    1  UNL1        0.0203
     44 C          64.4298   84.9186   14.3684 C.ar    1  UNL1        0.0985
     45 N          63.7384   84.9463   13.0375 N.ar    1  UNL1       -0.2471
     46 C          62.8991   83.7811   12.6041 C.ar    1  UNL1        0.0712
@<TRIPOS>BOND
     1    40    41    1
     2    41    42   ar
     3    42    43   ar
     4    43    44   ar
     5    44    45   ar
     6    45    46   ar
     7    46    39    1
     8    39     1    1
     9     1     2    1
    10     2     3    1
    11     3     4    1
    12     4     5    1
    13     5     6    1
    14     4     7    1
    15     7     8    2
    16     7     9   am
    17     9    21    1
    18    21    22   ar
    19    22    23   ar
    20    23    24   ar
    21    24    27    1
    22    27    28   ar
    23    28    29   ar
    24    29    30   ar
    25    30    33    1
    26    33    34    1
    27    34    35    1
    28    35    36    1
    29    36    37    1
    30    37    38    1
    31    30    31   ar
    32    31    32   ar
    33    24    25   ar
    34    25    26   ar
    35     9    10   am
    36    10    11    2
    37    10    12   am
    38    12    13    1
    39    13    14   ar
    40    14    15   ar
    41    15    16    1
    42    15    17   ar
    43    17    18   ar
    44    18    19   ar
    45    46    41   ar
    46     6     1    1
    47    26    21   ar
    48    19    13   ar
    49    12     4    1
    50    32    27   ar
    51    38    33    1
    52    16    20    1
