@<TRIPOS>MOLECULE
*****
 19 21 0 0 0
SMALL
GASTEIGER

@<TRIPOS>ATOM
      1 C          62.8561   90.0200   12.9521 C.2     1  UNL1        0.0420
      2 C          63.2665   88.7090   12.3499 C.2     1  UNL1        0.0034
      3 C          62.3899   88.0451   11.3296 C.ar    1  UNL1        0.0033
      4 C          62.3017   86.5487   11.2763 C.ar    1  UNL1        0.0033
      5 C          61.4252   85.8849   10.2560 C.ar    1  UNL1        0.0402
      6 C          60.6368   86.7175    9.2890 C.ar    1  UNL1        0.1764
      7 C          60.7249   88.2140    9.3423 C.ar    1  UNL1        0.1764
      8 C          61.6015   88.8778   10.3625 C.ar    1  UNL1        0.0402
      9 O          59.8380   88.7692    8.2675 O.3     1  UNL1       -0.4346
     10 C          59.2017   87.6158    7.5500 C.3     1  UNL1        0.4294
     11 O          59.6953   86.3478    8.1813 O.3     1  UNL1       -0.4346
     12 O          63.3349   90.6809   15.4187 O.2     1  UNL1       -0.2866
     13 C          63.7326   90.6838   13.9724 C.2     1  UNL1        0.1957
     14 C          65.0070   91.3506   13.5463 C.ar    1  UNL1        0.0420
     15 C          66.2102   91.3098   14.4410 C.ar    1  UNL1        0.0239
     16 C          67.4846   91.9765   14.0149 C.ar    1  UNL1        0.0990
     17 N          67.5556   92.6842   12.6942 N.ar    1  UNL1       -0.2423
     18 C          66.3523   92.7250   11.7995 C.ar    1  UNL1        0.0990
     19 C          65.0780   92.0582   12.2257 C.ar    1  UNL1        0.0239
@<TRIPOS>BOND
     1    12    13    2
     2    13     1    1
     3     1     2    2
     4     2     3    1
     5     3     4   ar
     6     4     5   ar
     7     5     6   ar
     8     6     7   ar
     9     7     8   ar
    10     7     9    1
    11     9    10    1
    12    10    11    1
    13    13    14    1
    14    14    15   ar
    15    15    16   ar
    16    16    17   ar
    17    17    18   ar
    18    18    19   ar
    19     8     3   ar
    20    19    14   ar
    21    11     6    1
@<TRIPOS>MOLECULE
*****
 19 21 0 0 0
SMALL
GASTEIGER

@<TRIPOS>ATOM
      1 C          62.3732   88.7607   11.2280 C.2     1  UNL1        0.0420
      2 C          62.3076   90.2417   10.9992 C.2     1  UNL1        0.0034
      3 C          63.4668   91.1123   11.3846 C.ar    1  UNL1        0.0033
      4 C          64.2068   91.8847   10.3332 C.ar    1  UNL1        0.0033
      5 C          65.3659   92.7552   10.7186 C.ar    1  UNL1        0.0402
      6 C          65.7849   92.8534   12.1556 C.ar    1  UNL1        0.1764
      7 C          65.0448   92.0810   13.2071 C.ar    1  UNL1        0.1764
      8 C          63.8857   91.2104   12.8217 C.ar    1  UNL1        0.0402
      9 O          65.6826   92.3742   14.5327 O.3     1  UNL1       -0.4346
     10 C          66.8169   93.3278   14.3004 C.3     1  UNL1        0.4294
     11 O          66.8802   93.6240   12.8313 O.3     1  UNL1       -0.4346
     12 O          59.9597   87.9039   11.6649 O.2     1  UNL1       -0.2866
     13 C          61.2141   87.8901   10.8426 C.2     1  UNL1        0.1957
     14 C          61.3095   87.0058    9.6347 C.ar    1  UNL1        0.0420
     15 C          60.1217   86.8348    8.7348 C.ar    1  UNL1        0.0239
     16 C          60.2170   85.9505    7.5269 C.ar    1  UNL1        0.0990
     17 N          61.5001   85.2372    7.2190 N.ar    1  UNL1       -0.2423
     18 C          62.6880   85.4082    8.1189 C.ar    1  UNL1        0.0990
     19 C          62.5926   86.2926    9.3267 C.ar    1  UNL1        0.0239
@<TRIPOS>BOND
     1    12    13    2
     2    13     1    1
     3     1     2    2
     4     2     3    1
     5     3     4   ar
     6     4     5   ar
     7     5     6   ar
     8     6     7   ar
     9     7     8   ar
    10     7     9    1
    11     9    10    1
    12    10    11    1
    13    13    14    1
    14    14    15   ar
    15    15    16   ar
    16    16    17   ar
    17    17    18   ar
    18    18    19   ar
    19     8     3   ar
    20    19    14   ar
    21    11     6    1
@<TRIPOS>MOLECULE
*****
 19 21 0 0 0
SMALL
GASTEIGER

@<TRIPOS>ATOM
      1 C          63.2412   84.3772   10.2180 C.2     1  UNL1        0.0420
      2 C          62.4043   85.3724   10.9658 C.2     1  UNL1        0.0034
      3 C          61.7623   86.5133   10.2333 C.ar    1  UNL1        0.0033
      4 C          62.1098   87.9269   10.5947 C.ar    1  UNL1        0.0033
      5 C          61.4678   89.0677    9.8623 C.ar    1  UNL1        0.0402
      6 C          60.4783   88.7948    8.7685 C.ar    1  UNL1        0.1764
      7 C          60.1308   87.3811    8.4071 C.ar    1  UNL1        0.1764
      8 C          60.7728   86.2403    9.1395 C.ar    1  UNL1        0.0402
      9 O          59.1276   87.4207    7.2926 O.3     1  UNL1       -0.4346
     10 C          58.8551   88.8590    6.9653 C.3     1  UNL1        0.4294
     11 O          59.6899   89.7082    7.8774 O.3     1  UNL1       -0.4346
     12 O          64.8283   82.3202   10.2311 O.2     1  UNL1       -0.2866
     13 C          63.8832   83.2364   10.9504 C.2     1  UNL1        0.1957
     14 C          63.5800   83.0118   12.4023 C.ar    1  UNL1        0.0420
     15 C          62.4682   82.0876   12.8020 C.ar    1  UNL1        0.0239
     16 C          62.1650   81.8630   14.2538 C.ar    1  UNL1        0.0990
     17 N          62.9736   82.5626   15.3058 N.ar    1  UNL1       -0.2423
     18 C          64.0855   83.4868   14.9060 C.ar    1  UNL1        0.0990
     19 C          64.3886   83.7113   13.4542 C.ar    1  UNL1        0.0239
@<TRIPOS>BOND
     1    12    13    2
     2    13     1    1
     3     1     2    2
     4     2     3    1
     5     3     4   ar
     6     4     5   ar
     7     5     6   ar
     8     6     7   ar
     9     7     8   ar
    10     7     9    1
    11     9    10    1
    12    10    11    1
    13    13    14    1
    14    14    15   ar
    15    15    16   ar
    16    16    17   ar
    17    17    18   ar
    18    18    19   ar
    19     8     3   ar
    20    19    14   ar
    21    11     6    1
@<TRIPOS>MOLECULE
*****
 19 21 0 0 0
SMALL
GASTEIGER

@<TRIPOS>ATOM
      1 C          62.2018   90.1885   11.1069 C.2     1  UNL1        0.0420
      2 C          63.1067   91.2534   10.5618 C.2     1  UNL1        0.0034
      3 C          64.3304   91.6619   11.3272 C.ar    1  UNL1        0.0033
      4 C          65.4259   92.4218   10.6401 C.ar    1  UNL1        0.0033
      5 C          66.6496   92.8303   11.4054 C.ar    1  UNL1        0.0402
      6 C          66.7777   92.4787   12.8580 C.ar    1  UNL1        0.1764
      7 C          65.6822   91.7187   13.5452 C.ar    1  UNL1        0.1764
      8 C          64.4585   91.3103   12.7799 C.ar    1  UNL1        0.0402
      9 O          66.0859   91.5151   14.9754 O.3     1  UNL1       -0.4346
     10 C          67.4309   92.1492   15.1721 C.3     1  UNL1        0.4294
     11 O          67.8585   92.7448   13.8635 O.3     1  UNL1       -0.4346
     12 O          59.7544   90.6473   10.3654 O.2     1  UNL1       -0.2866
     13 C          60.9782   89.7801   10.3416 C.2     1  UNL1        0.1957
     14 C          60.9783   88.5044    9.5523 C.ar    1  UNL1        0.0420
     15 C          59.8486   88.2041    8.6123 C.ar    1  UNL1        0.0239
     16 C          59.8487   86.9285    7.8231 C.ar    1  UNL1        0.0990
     17 N          60.9784   85.9533    7.9738 N.ar    1  UNL1       -0.2423
     18 C          62.1081   86.2537    8.9139 C.ar    1  UNL1        0.0990
     19 C          62.1079   87.5293    9.7031 C.ar    1  UNL1        0.0239
@<TRIPOS>BOND
     1    12    13    2
     2    13     1    1
     3     1     2    2
     4     2     3    1
     5     3     4   ar
     6     4     5   ar
     7     5     6   ar
     8     6     7   ar
     9     7     8   ar
    10     7     9    1
    11     9    10    1
    12    10    11    1
    13    13    14    1
    14    14    15   ar
    15    15    16   ar
    16    16    17   ar
    17    17    18   ar
    18    18    19   ar
    19     8     3   ar
    20    19    14   ar
    21    11     6    1
@<TRIPOS>MOLECULE
*****
 19 21 0 0 0
SMALL
GASTEIGER

@<TRIPOS>ATOM
      1 C          63.2561   85.3661   12.7270 C.2     1  UNL1        0.0420
      2 C          62.5276   85.1246   11.4382 C.2     1  UNL1        0.0034
      3 C          61.9341   86.2780   10.6847 C.ar    1  UNL1        0.0033
      4 C          62.2760   87.6850   11.0760 C.ar    1  UNL1        0.0033
      5 C          61.6826   88.8383   10.3225 C.ar    1  UNL1        0.0402
      6 C          60.7472   88.5845    9.1777 C.ar    1  UNL1        0.1764
      7 C          60.4053   87.1774    8.7863 C.ar    1  UNL1        0.1764
      8 C          60.9987   86.0241    9.5398 C.ar    1  UNL1        0.0402
      9 O          59.4602   87.2364    7.6230 O.3     1  UNL1       -0.4346
     10 C          59.2180   88.6800    7.2954 C.3     1  UNL1        0.4294
     11 O          60.0134   89.5132    8.2562 O.3     1  UNL1       -0.4346
     12 O          65.0965   84.4084   14.2909 O.2     1  UNL1       -0.2866
     13 C          63.8495   84.2128   13.4805 C.2     1  UNL1        0.1957
     14 C          63.1959   82.8638   13.4235 C.ar    1  UNL1        0.0420
     15 C          63.6332   81.8613   12.3970 C.ar    1  UNL1        0.0239
     16 C          62.9796   80.5124   12.3400 C.ar    1  UNL1        0.0990
     17 N          61.8887   80.1660   13.3095 N.ar    1  UNL1       -0.2423
     18 C          61.4514   81.1686   14.3360 C.ar    1  UNL1        0.0990
     19 C          62.1050   82.5175   14.3929 C.ar    1  UNL1        0.0239
@<TRIPOS>BOND
     1    12    13    2
     2    13     1    1
     3     1     2    2
     4     2     3    1
     5     3     4   ar
     6     4     5   ar
     7     5     6   ar
     8     6     7   ar
     9     7     8   ar
    10     7     9    1
    11     9    10    1
    12    10    11    1
    13    13    14    1
    14    14    15   ar
    15    15    16   ar
    16    16    17   ar
    17    17    18   ar
    18    18    19   ar
    19     8     3   ar
    20    19    14   ar
    21    11     6    1
@<TRIPOS>MOLECULE
*****
 19 21 0 0 0
SMALL
GASTEIGER

@<TRIPOS>ATOM
      1 C          63.9144   88.9941   14.1406 C.2     1  UNL1        0.0420
      2 C          64.3664   87.7180   14.7864 C.2     1  UNL1        0.0034
      3 C          63.9746   86.3972   14.1930 C.ar    1  UNL1        0.0033
      4 C          63.3349   86.3444   12.8373 C.ar    1  UNL1        0.0033
      5 C          62.9430   85.0237   12.2439 C.ar    1  UNL1        0.0402
      6 C          63.1909   83.7558   13.0062 C.ar    1  UNL1        0.1764
      7 C          63.8306   83.8087   14.3619 C.ar    1  UNL1        0.1764
      8 C          64.2225   85.1294   14.9553 C.ar    1  UNL1        0.0402
      9 O          63.9493   82.4036   14.8736 O.3     1  UNL1       -0.4346
     10 C          63.3829   81.4824   13.8341 C.3     1  UNL1        0.4294
     11 O          62.9142   82.3181   12.6800 O.3     1  UNL1       -0.4346
     12 O          63.6862   90.7724   16.0209 O.2     1  UNL1       -0.2866
     13 C          64.3063   90.3148   14.7340 C.2     1  UNL1        0.1957
     14 C          65.3182   91.1780   14.0404 C.ar    1  UNL1        0.0420
     15 C          64.9541   91.8871   12.7698 C.ar    1  UNL1        0.0239
     16 C          65.9660   92.7503   12.0762 C.ar    1  UNL1        0.0990
     17 N          67.3420   92.9043   12.6532 N.ar    1  UNL1       -0.2423
     18 C          67.7061   92.1951   13.9239 C.ar    1  UNL1        0.0990
     19 C          66.6941   91.3320   14.6174 C.ar    1  UNL1        0.0239
@<TRIPOS>BOND
     1    12    13    2
     2    13     1    1
     3     1     2    2
     4     2     3    1
     5     3     4   ar
     6     4     5   ar
     7     5     6   ar
     8     6     7   ar
     9     7     8   ar
    10     7     9    1
    11     9    10    1
    12    10    11    1
    13    13    14    1
    14    14    15   ar
    15    15    16   ar
    16    16    17   ar
    17    17    18   ar
    18    18    19   ar
    19     8     3   ar
    20    19    14   ar
    21    11     6    1
@<TRIPOS>MOLECULE
*****
 19 21 0 0 0
SMALL
GASTEIGER

@<TRIPOS>ATOM
      1 C          62.4412   88.8951   10.7528 C.2     1  UNL1        0.0420
      2 C          62.6532   89.5565   12.0823 C.2     1  UNL1        0.0034
      3 C          63.7016   90.6188   12.2329 C.ar    1  UNL1        0.0033
      4 C          64.4210   90.7827   13.5388 C.ar    1  UNL1        0.0033
      5 C          65.4694   91.8448   13.6894 C.ar    1  UNL1        0.0402
      6 C          65.7984   92.7430   12.5340 C.ar    1  UNL1        0.1764
      7 C          65.0790   92.5791   11.2280 C.ar    1  UNL1        0.1764
      8 C          64.0306   91.5170   11.0774 C.ar    1  UNL1        0.0402
      9 O          65.6130   93.6049   10.2727 O.3     1  UNL1       -0.4346
     10 C          66.6625   94.4027   10.9883 C.3     1  UNL1        0.4294
     11 O          66.7771   93.8701   12.3858 O.3     1  UNL1       -0.4346
     12 O          60.3140   87.6922   11.6349 O.2     1  UNL1       -0.2866
     13 C          61.3928   87.8330   10.6023 C.2     1  UNL1        0.1957
     14 C          61.4233   86.9115    9.4189 C.ar    1  UNL1        0.0420
     15 C          62.6775   86.1590    9.0866 C.ar    1  UNL1        0.0239
     16 C          62.7080   85.2375    7.9034 C.ar    1  UNL1        0.0990
     17 N          61.4843   85.0687    7.0525 N.ar    1  UNL1       -0.2423
     18 C          60.2300   85.8213    7.3849 C.ar    1  UNL1        0.0990
     19 C          60.1996   86.7427    8.5681 C.ar    1  UNL1        0.0239
@<TRIPOS>BOND
     1    12    13    2
     2    13     1    1
     3     1     2    2
     4     2     3    1
     5     3     4   ar
     6     4     5   ar
     7     5     6   ar
     8     6     7   ar
     9     7     8   ar
    10     7     9    1
    11     9    10    1
    12    10    11    1
    13    13    14    1
    14    14    15   ar
    15    15    16   ar
    16    16    17   ar
    17    17    18   ar
    18    18    19   ar
    19     8     3   ar
    20    19    14   ar
    21    11     6    1
@<TRIPOS>MOLECULE
*****
 19 21 0 0 0
SMALL
GASTEIGER

@<TRIPOS>ATOM
      1 C          64.8650   91.1160   13.7493 C.2     1  UNL1        0.0420
      2 C          65.5595   92.4355   13.5859 C.2     1  UNL1        0.0034
      3 C          66.2244   92.7771   12.2853 C.ar    1  UNL1        0.0033
      4 C          67.2955   91.8840   11.7333 C.ar    1  UNL1        0.0033
      5 C          67.9603   92.2256   10.4328 C.ar    1  UNL1        0.0402
      6 C          67.5539   93.4605    9.6844 C.ar    1  UNL1        0.1764
      7 C          66.4828   94.3536   10.2365 C.ar    1  UNL1        0.1764
      8 C          65.8179   94.0120   11.5370 C.ar    1  UNL1        0.0402
      9 O          66.2936   95.4953    9.2821 O.3     1  UNL1       -0.4346
     10 C          67.2479   95.3077    8.1401 C.3     1  UNL1        0.4294
     11 O          68.0269   94.0501    8.3888 O.3     1  UNL1       -0.4346
     12 O          63.7867   91.8671   15.9905 O.2     1  UNL1       -0.2866
     13 C          64.2002   90.7744   15.0498 C.2     1  UNL1        0.1957
     14 C          63.9490   89.3399   15.4095 C.ar    1  UNL1        0.0420
     15 C          64.4625   88.2436   14.5239 C.ar    1  UNL1        0.0239
     16 C          64.2113   86.8092   14.8836 C.ar    1  UNL1        0.0990
     17 N          63.4466   86.4711   16.1289 N.ar    1  UNL1       -0.2423
     18 C          62.9330   87.5675   17.0146 C.ar    1  UNL1        0.0990
     19 C          63.1842   89.0018   16.6548 C.ar    1  UNL1        0.0239
@<TRIPOS>BOND
     1    12    13    2
     2    13     1    1
     3     1     2    2
     4     2     3    1
     5     3     4   ar
     6     4     5   ar
     7     5     6   ar
     8     6     7   ar
     9     7     8   ar
    10     7     9    1
    11     9    10    1
    12    10    11    1
    13    13    14    1
    14    14    15   ar
    15    15    16   ar
    16    16    17   ar
    17    17    18   ar
    18    18    19   ar
    19     8     3   ar
    20    19    14   ar
    21    11     6    1
@<TRIPOS>MOLECULE
*****
 19 21 0 0 0
SMALL
GASTEIGER

@<TRIPOS>ATOM
      1 C          64.6164   91.1871   12.3633 C.2     1  UNL1        0.0420
      2 C          63.5853   91.2896   11.2787 C.2     1  UNL1        0.0034
      3 C          62.7709   90.0875   10.9021 C.ar    1  UNL1        0.0033
      4 C          62.9700   88.7896   11.6270 C.ar    1  UNL1        0.0033
      5 C          62.1556   87.5875   11.2504 C.ar    1  UNL1        0.0402
      6 C          61.1421   87.6835   10.1488 C.ar    1  UNL1        0.1764
      7 C          60.9429   88.9814    9.4239 C.ar    1  UNL1        0.1764
      8 C          61.7573   90.1835    9.8005 C.ar    1  UNL1        0.0402
      9 O          59.8776   88.7752    8.3882 O.3     1  UNL1       -0.4346
     10 C          59.4184   87.3498    8.4731 C.3     1  UNL1        0.4294
     11 O          60.1999   86.6750    9.5612 O.3     1  UNL1       -0.4346
     12 O          65.4864   92.8395   14.1697 O.2     1  UNL1       -0.2866
     13 C          65.4308   92.3892   12.7399 C.2     1  UNL1        0.1957
     14 C          66.1896   93.1409   11.6867 C.ar    1  UNL1        0.0420
     15 C          67.0532   92.3982   10.7107 C.ar    1  UNL1        0.0239
     16 C          67.8120   93.1498    9.6575 C.ar    1  UNL1        0.0990
     17 N          67.7072   94.6441    9.5803 N.ar    1  UNL1       -0.2423
     18 C          66.8435   95.3869   10.5563 C.ar    1  UNL1        0.0990
     19 C          66.0847   94.6351   11.6095 C.ar    1  UNL1        0.0239
@<TRIPOS>BOND
     1    12    13    2
     2    13     1    1
     3     1     2    2
     4     2     3    1
     5     3     4   ar
     6     4     5   ar
     7     5     6   ar
     8     6     7   ar
     9     7     8   ar
    10     7     9    1
    11     9    10    1
    12    10    11    1
    13    13    14    1
    14    14    15   ar
    15    15    16   ar
    16    16    17   ar
    17    17    18   ar
    18    18    19   ar
    19     8     3   ar
    20    19    14   ar
    21    11     6    1
