@<TRIPOS>MOLECULE
*****
 21 23 0 0 0
SMALL
GASTEIGER

@<TRIPOS>ATOM
      1 C          64.9328   91.7843   12.3524 C.ar    1  UNL1        0.0252
      2 C          63.7411   91.1564   11.6925 C.ar    1  UNL1        0.0993
      3 N          63.0298   90.0156   12.3578 N.ar    1  UNL1       -0.2423
      4 C          63.5103   89.5028   13.6830 C.ar    1  UNL1        0.0989
      5 C          64.7020   90.1307   14.3429 C.ar    1  UNL1        0.0207
      6 C          65.4133   91.2714   13.6776 C.ar    1  UNL1        0.0035
      7 C          66.6051   91.8994   14.3374 C.ar    1  UNL1        0.0001
      8 C          67.9666   91.7493   13.7261 C.ar    1  UNL1        0.0000
      9 C          69.1584   92.3772   14.3859 C.ar    1  UNL1        0.0000
     10 C          68.9887   93.1553   15.6570 C.ar    1  UNL1        0.0000
     11 C          67.6271   93.3054   16.2684 C.ar    1  UNL1        0.0000
     12 C          66.4353   92.6775   15.6085 C.ar    1  UNL1        0.0000
     13 C          66.8528   94.2554   10.0560 C.ar    1  UNL1        0.0230
     14 C          66.6249   95.1058   11.2705 C.ar    1  UNL1        0.0040
     15 C          65.8779   94.2836   12.2785 C.ar    1  UNL1        0.0067
     16 C          65.6442   92.9251   11.6870 C.ar    1  UNL1        0.0307
     17 S          66.2467   92.9077   10.3135 S.2     1  UNL1       -0.0899
     18 N          67.8697   96.1277    8.5693 N.3     1  UNL1       -0.3170
     19 C          67.5622   94.6784    8.8039 C.3     1  UNL1        0.0987
     20 H          68.3508   96.2329    7.6761 H       1  UNL1        0.1192
     21 H          68.4669   96.4744    9.3200 H       1  UNL1        0.1192
@<TRIPOS>BOND
     1    18    19    1
     2    19    13    1
     3    13    14   ar
     4    14    15   ar
     5    15    16   ar
     6    16     1    1
     7     1     2   ar
     8     2     3   ar
     9     3     4   ar
    10     4     5   ar
    11     5     6   ar
    12     6     7    1
    13     7     8   ar
    14     8     9   ar
    15     9    10   ar
    16    10    11   ar
    17    11    12   ar
    18    16    17   ar
    19    17    13   ar
    20     6     1   ar
    21    12     7   ar
    22    18    20    1
    23    18    21    1
@<TRIPOS>MOLECULE
*****
 21 23 0 0 0
SMALL
GASTEIGER

@<TRIPOS>ATOM
      1 C          63.0507   86.4972   12.2662 C.ar    1  UNL1        0.0252
      2 C          63.2533   87.8363   12.9108 C.ar    1  UNL1        0.0993
      3 N          64.0359   87.9441   14.1859 N.ar    1  UNL1       -0.2423
      4 C          64.6158   86.7128   14.8164 C.ar    1  UNL1        0.0989
      5 C          64.4132   85.3736   14.1718 C.ar    1  UNL1        0.0207
      6 C          63.6306   85.2658   12.8967 C.ar    1  UNL1        0.0035
      7 C          63.4279   83.9266   12.2520 C.ar    1  UNL1        0.0001
      8 C          64.2534   83.5341   11.0627 C.ar    1  UNL1        0.0000
      9 C          64.0508   82.1950   10.4180 C.ar    1  UNL1        0.0000
     10 C          63.0226   81.2483   10.9626 C.ar    1  UNL1        0.0000
     11 C          62.1970   81.6408   12.1519 C.ar    1  UNL1        0.0000
     12 C          62.3997   82.9800   12.7966 C.ar    1  UNL1        0.0000
     13 C          60.5287   86.6605    9.3202 C.ar    1  UNL1        0.0230
     14 C          61.5990   85.7860    8.7373 C.ar    1  UNL1        0.0040
     15 C          62.6740   85.6184    9.7699 C.ar    1  UNL1        0.0067
     16 C          62.2681   86.3893   10.9910 C.ar    1  UNL1        0.0307
     17 S          60.9422   87.0333   10.7131 S.2     1  UNL1       -0.0899
     18 N          58.7516   86.3069    7.4582 N.3     1  UNL1       -0.3170
     19 C          59.2665   87.0872    8.6312 C.3     1  UNL1        0.0987
     20 H          57.8911   86.7348    7.1165 H       1  UNL1        0.1192
     21 H          58.5631   85.3464    7.7451 H       1  UNL1        0.1192
@<TRIPOS>BOND
     1    18    19    1
     2    19    13    1
     3    13    14   ar
     4    14    15   ar
     5    15    16   ar
     6    16     1    1
     7     1     2   ar
     8     2     3   ar
     9     3     4   ar
    10     4     5   ar
    11     5     6   ar
    12     6     7    1
    13     7     8   ar
    14     8     9   ar
    15     9    10   ar
    16    10    11   ar
    17    11    12   ar
    18    16    17   ar
    19    17    13   ar
    20     6     1   ar
    21    12     7   ar
    22    18    20    1
    23    18    21    1
@<TRIPOS>MOLECULE
*****
 21 23 0 0 0
SMALL
GASTEIGER

@<TRIPOS>ATOM
      1 C          63.9524   90.8338   12.2330 C.ar    1  UNL1        0.0252
      2 C          64.4136   91.8537   11.2345 C.ar    1  UNL1        0.0993
      3 N          65.5780   92.7435   11.5545 N.ar    1  UNL1       -0.2423
      4 C          66.2812   92.6133   12.8731 C.ar    1  UNL1        0.0989
      5 C          65.8200   91.5934   13.8716 C.ar    1  UNL1        0.0207
      6 C          64.6556   90.7037   13.5515 C.ar    1  UNL1        0.0035
      7 C          64.1943   89.6837   14.5500 C.ar    1  UNL1        0.0001
      8 C          63.4536   90.1193   15.7795 C.ar    1  UNL1        0.0000
      9 C          62.9924   89.0994   16.7780 C.ar    1  UNL1        0.0000
     10 C          63.2718   87.6438   16.5471 C.ar    1  UNL1        0.0000
     11 C          64.0126   87.2082   15.3176 C.ar    1  UNL1        0.0000
     12 C          64.4738   88.2282   14.3191 C.ar    1  UNL1        0.0000
     13 C          60.5296   89.0743   11.7289 C.ar    1  UNL1        0.0230
     14 C          61.4628   88.0750   11.1119 C.ar    1  UNL1        0.0040
     15 C          62.8586   88.6125   11.2257 C.ar    1  UNL1        0.0067
     16 C          62.7880   89.9439   11.9129 C.ar    1  UNL1        0.0307
     17 S          61.3486   90.2293   12.2239 S.2     1  UNL1       -0.0899
     18 N          58.4066   88.5951   13.1478 N.3     1  UNL1       -0.3170
     19 C          59.0391   88.9417   11.8326 C.3     1  UNL1        0.0987
     20 H          57.3939   88.5468   13.0359 H       1  UNL1        0.1192
     21 H          58.6388   89.3114   13.8360 H       1  UNL1        0.1192
@<TRIPOS>BOND
     1    18    19    1
     2    19    13    1
     3    13    14   ar
     4    14    15   ar
     5    15    16   ar
     6    16     1    1
     7     1     2   ar
     8     2     3   ar
     9     3     4   ar
    10     4     5   ar
    11     5     6   ar
    12     6     7    1
    13     7     8   ar
    14     8     9   ar
    15     9    10   ar
    16    10    11   ar
    17    11    12   ar
    18    16    17   ar
    19    17    13   ar
    20     6     1   ar
    21    12     7   ar
    22    18    20    1
    23    18    21    1
@<TRIPOS>MOLECULE
*****
 21 23 0 0 0
SMALL
GASTEIGER

@<TRIPOS>ATOM
      1 C          65.0944   91.6142   12.6724 C.ar    1  UNL1        0.0252
      2 C          64.0740   90.7311   13.3273 C.ar    1  UNL1        0.0993
      3 N          62.8475   90.3137   12.5713 N.ar    1  UNL1       -0.2423
      4 C          62.6414   90.7795   11.1605 C.ar    1  UNL1        0.0989
      5 C          63.6618   91.6626   10.5056 C.ar    1  UNL1        0.0207
      6 C          64.8883   92.0800   11.2616 C.ar    1  UNL1        0.0035
      7 C          65.9087   92.9631   10.6067 C.ar    1  UNL1        0.0001
      8 C          65.7596   94.4544   10.6676 C.ar    1  UNL1        0.0000
      9 C          66.7800   95.3376   10.0128 C.ar    1  UNL1        0.0000
     10 C          67.9495   94.7294    9.2970 C.ar    1  UNL1        0.0000
     11 C          68.0986   93.2381    9.2360 C.ar    1  UNL1        0.0000
     12 C          67.0782   92.3549    9.8909 C.ar    1  UNL1        0.0000
     13 C          67.7928   93.1374   15.0099 C.ar    1  UNL1        0.0230
     14 C          68.6239   92.2101   14.1735 C.ar    1  UNL1        0.0040
     15 C          67.7142   91.5267   13.1961 C.ar    1  UNL1        0.0067
     16 C          66.3209   92.0316   13.4284 C.ar    1  UNL1        0.0307
     17 S          66.3695   93.0270   14.5494 S.2     1  UNL1       -0.0899
     18 N          69.7438   94.4120   16.1585 N.3     1  UNL1       -0.3170
     19 C          68.2966   94.0201   16.1131 C.3     1  UNL1        0.0987
     20 H          69.9091   95.0092   16.9687 H       1  UNL1        0.1192
     21 H          69.9855   94.9192   15.3072 H       1  UNL1        0.1192
@<TRIPOS>BOND
     1    18    19    1
     2    19    13    1
     3    13    14   ar
     4    14    15   ar
     5    15    16   ar
     6    16     1    1
     7     1     2   ar
     8     2     3   ar
     9     3     4   ar
    10     4     5   ar
    11     5     6   ar
    12     6     7    1
    13     7     8   ar
    14     8     9   ar
    15     9    10   ar
    16    10    11   ar
    17    11    12   ar
    18    16    17   ar
    19    17    13   ar
    20     6     1   ar
    21    12     7   ar
    22    18    20    1
    23    18    21    1
@<TRIPOS>MOLECULE
*****
 21 23 0 0 0
SMALL
GASTEIGER

@<TRIPOS>ATOM
      1 C          63.7772   90.8133   12.1430 C.ar    1  UNL1        0.0252
      2 C          64.1915   91.8341   11.1250 C.ar    1  UNL1        0.0993
      3 N          65.3588   92.7354   11.3988 N.ar    1  UNL1       -0.2423
      4 C          66.1119   92.6159   12.6905 C.ar    1  UNL1        0.0989
      5 C          65.6976   91.5951   13.7085 C.ar    1  UNL1        0.0207
      6 C          64.5302   90.6938   13.4348 C.ar    1  UNL1        0.0035
      7 C          64.1159   89.6730   14.4528 C.ar    1  UNL1        0.0001
      8 C          64.4273   88.2227   14.2303 C.ar    1  UNL1        0.0000
      9 C          64.0130   87.2018   15.2482 C.ar    1  UNL1        0.0000
     10 C          63.2872   87.6313   16.4887 C.ar    1  UNL1        0.0000
     11 C          62.9758   89.0817   16.7112 C.ar    1  UNL1        0.0000
     12 C          63.3901   90.1025   15.6932 C.ar    1  UNL1        0.0000
     13 C          61.2718   88.0314   11.1186 C.ar    1  UNL1        0.0230
     14 C          60.3549   89.0188   11.7777 C.ar    1  UNL1        0.0040
     15 C          61.1818   90.1811   12.2416 C.ar    1  UNL1        0.0067
     16 C          62.6098   89.9120   11.8693 C.ar    1  UNL1        0.0307
     17 S          62.6653   88.5834   11.1752 S.2     1  UNL1       -0.0899
     18 N          61.6944   85.4945   10.7501 N.3     1  UNL1       -0.3170
     19 C          60.8663   86.7219   10.5097 C.3     1  UNL1        0.0987
     20 H          61.2754   84.7012   10.2649 H       1  UNL1        0.1192
     21 H          61.7316   85.3001   11.7507 H       1  UNL1        0.1192
@<TRIPOS>BOND
     1    18    19    1
     2    19    13    1
     3    13    14   ar
     4    14    15   ar
     5    15    16   ar
     6    16     1    1
     7     1     2   ar
     8     2     3   ar
     9     3     4   ar
    10     4     5   ar
    11     5     6   ar
    12     6     7    1
    13     7     8   ar
    14     8     9   ar
    15     9    10   ar
    16    10    11   ar
    17    11    12   ar
    18    16    17   ar
    19    17    13   ar
    20     6     1   ar
    21    12     7   ar
    22    18    20    1
    23    18    21    1
@<TRIPOS>MOLECULE
*****
 21 23 0 0 0
SMALL
GASTEIGER

@<TRIPOS>ATOM
      1 C          62.8600   86.4435   11.6410 C.ar    1  UNL1        0.0252
      2 C          63.2586   87.2186   12.8618 C.ar    1  UNL1        0.0993
      3 N          63.2091   88.7177   12.8477 N.ar    1  UNL1       -0.2423
      4 C          62.7610   89.4417   11.6127 C.ar    1  UNL1        0.0989
      5 C          62.3624   88.6666   10.3920 C.ar    1  UNL1        0.0207
      6 C          62.4119   87.1675   10.4061 C.ar    1  UNL1        0.0035
      7 C          62.0132   86.3924    9.1853 C.ar    1  UNL1        0.0001
      8 C          60.5728   86.3345    8.7709 C.ar    1  UNL1        0.0000
      9 C          60.1741   85.5594    7.5502 C.ar    1  UNL1        0.0000
     10 C          61.2159   84.8421    6.7438 C.ar    1  UNL1        0.0000
     11 C          62.6564   84.9000    7.1582 C.ar    1  UNL1        0.0000
     12 C          63.0550   85.6752    8.3790 C.ar    1  UNL1        0.0000
     13 C          62.6420   82.6324   12.3435 C.ar    1  UNL1        0.0230
     14 C          63.3292   82.6425   11.0101 C.ar    1  UNL1        0.0040
     15 C          63.4944   84.0714   10.5847 C.ar    1  UNL1        0.0067
     16 C          62.9094   84.9444   11.6552 C.ar    1  UNL1        0.0307
     17 S          62.3826   84.0550   12.7421 S.2     1  UNL1       -0.0899
     18 N          62.1029   81.5125   14.6250 N.3     1  UNL1       -0.3170
     19 C          62.2781   81.4136   13.1386 C.3     1  UNL1        0.0987
     20 H          61.8587   80.5961   15.0003 H       1  UNL1        0.1192
     21 H          61.3575   82.1760   14.8361 H       1  UNL1        0.1192
@<TRIPOS>BOND
     1    18    19    1
     2    19    13    1
     3    13    14   ar
     4    14    15   ar
     5    15    16   ar
     6    16     1    1
     7     1     2   ar
     8     2     3   ar
     9     3     4   ar
    10     4     5   ar
    11     5     6   ar
    12     6     7    1
    13     7     8   ar
    14     8     9   ar
    15     9    10   ar
    16    10    11   ar
    17    11    12   ar
    18    16    17   ar
    19    17    13   ar
    20     6     1   ar
    21    12     7   ar
    22    18    20    1
    23    18    21    1
@<TRIPOS>MOLECULE
*****
 21 23 0 0 0
SMALL
GASTEIGER

@<TRIPOS>ATOM
      1 C          65.0875   91.8744   13.3604 C.ar    1  UNL1        0.0252
      2 C          64.6251   91.5434   14.7484 C.ar    1  UNL1        0.0993
      3 N          65.4382   91.9749   15.9326 N.ar    1  UNL1       -0.2423
      4 C          66.7138   92.7375   15.7289 C.ar    1  UNL1        0.0989
      5 C          67.1762   93.0685   14.3409 C.ar    1  UNL1        0.0207
      6 C          66.3630   92.6370   13.1566 C.ar    1  UNL1        0.0035
      7 C          66.8254   92.9680   11.7686 C.ar    1  UNL1        0.0001
      8 C          66.4275   94.2684   11.1356 C.ar    1  UNL1        0.0000
      9 C          66.8898   94.5994    9.7476 C.ar    1  UNL1        0.0000
     10 C          67.7502   93.6300    8.9925 C.ar    1  UNL1        0.0000
     11 C          68.1481   92.3296    9.6254 C.ar    1  UNL1        0.0000
     12 C          67.6857   91.9986   11.0135 C.ar    1  UNL1        0.0000
     13 C          62.7317   90.2183   10.7578 C.ar    1  UNL1        0.0230
     14 C          63.3145   91.3393    9.9492 C.ar    1  UNL1        0.0040
     15 C          64.2679   92.0961   10.8257 C.ar    1  UNL1        0.0067
     16 C          64.2744   91.4429   12.1760 C.ar    1  UNL1        0.0307
     17 S          63.3249   90.2823   12.1340 S.2     1  UNL1       -0.0899
     18 N          60.6962   89.6058    9.2639 N.3     1  UNL1       -0.3170
     19 C          61.7313   89.2103   10.2749 C.3     1  UNL1        0.0987
     20 H          60.1042   88.8029    9.0515 H       1  UNL1        0.1192
     21 H          61.1575   89.9232    8.4113 H       1  UNL1        0.1192
@<TRIPOS>BOND
     1    18    19    1
     2    19    13    1
     3    13    14   ar
     4    14    15   ar
     5    15    16   ar
     6    16     1    1
     7     1     2   ar
     8     2     3   ar
     9     3     4   ar
    10     4     5   ar
    11     5     6   ar
    12     6     7    1
    13     7     8   ar
    14     8     9   ar
    15     9    10   ar
    16    10    11   ar
    17    11    12   ar
    18    16    17   ar
    19    17    13   ar
    20     6     1   ar
    21    12     7   ar
    22    18    20    1
    23    18    21    1
@<TRIPOS>MOLECULE
*****
 21 23 0 0 0
SMALL
GASTEIGER

@<TRIPOS>ATOM
      1 C          66.4020   92.6564   13.3622 C.ar    1  UNL1        0.0252
      2 C          67.2225   93.2513   14.4680 C.ar    1  UNL1        0.0993
      3 N          66.8310   93.0241   15.8980 N.ar    1  UNL1       -0.2423
      4 C          65.6190   92.2019   16.2222 C.ar    1  UNL1        0.0989
      5 C          64.7985   91.6070   15.1164 C.ar    1  UNL1        0.0207
      6 C          65.1900   91.8342   13.6864 C.ar    1  UNL1        0.0035
      7 C          64.3696   91.2392   12.5805 C.ar    1  UNL1        0.0001
      8 C          64.1591   92.0044   11.3077 C.ar    1  UNL1        0.0000
      9 C          63.3387   91.4095   10.2018 C.ar    1  UNL1        0.0000
     10 C          62.7286   90.0493   10.3688 C.ar    1  UNL1        0.0000
     11 C          62.9391   89.2841   11.6416 C.ar    1  UNL1        0.0000
     12 C          63.7596   89.8791   12.7475 C.ar    1  UNL1        0.0000
     13 C          67.0499   93.8985    9.7424 C.ar    1  UNL1        0.0230
     14 C          67.7419   92.5678    9.7204 C.ar    1  UNL1        0.0040
     15 C          67.5834   91.9406   11.0737 C.ar    1  UNL1        0.0067
     16 C          66.7935   92.8836   11.9320 C.ar    1  UNL1        0.0307
     17 S          66.4638   94.0937   11.1092 S.2     1  UNL1       -0.0899
     18 N          67.8284   96.0874    8.5791 N.3     1  UNL1       -0.3170
     19 C          66.9599   94.8645    8.5983 C.3     1  UNL1        0.0987
     20 H          67.6371   96.6270    7.7349 H       1  UNL1        0.1192
     21 H          68.8093   95.8079    8.5890 H       1  UNL1        0.1192
@<TRIPOS>BOND
     1    18    19    1
     2    19    13    1
     3    13    14   ar
     4    14    15   ar
     5    15    16   ar
     6    16     1    1
     7     1     2   ar
     8     2     3   ar
     9     3     4   ar
    10     4     5   ar
    11     5     6   ar
    12     6     7    1
    13     7     8   ar
    14     8     9   ar
    15     9    10   ar
    16    10    11   ar
    17    11    12   ar
    18    16    17   ar
    19    17    13   ar
    20     6     1   ar
    21    12     7   ar
    22    18    20    1
    23    18    21    1
@<TRIPOS>MOLECULE
*****
 21 23 0 0 0
SMALL
GASTEIGER

@<TRIPOS>ATOM
      1 C          64.4669   90.6245   13.4862 C.ar    1  UNL1        0.0252
      2 C          65.6369   91.5219   13.7614 C.ar    1  UNL1        0.0993
      3 N          66.0964   92.4964   12.7178 N.ar    1  UNL1       -0.2423
      4 C          65.3860   92.5734   11.3989 C.ar    1  UNL1        0.0989
      5 C          64.2160   91.6761   11.1237 C.ar    1  UNL1        0.0207
      6 C          63.7565   90.7016   12.1673 C.ar    1  UNL1        0.0035
      7 C          62.5864   89.8041   11.8921 C.ar    1  UNL1        0.0001
      8 C          62.8100   88.4315   11.3302 C.ar    1  UNL1        0.0000
      9 C          61.6400   87.5340   11.0550 C.ar    1  UNL1        0.0000
     10 C          60.2464   88.0092   11.3417 C.ar    1  UNL1        0.0000
     11 C          60.0229   89.3819   11.9036 C.ar    1  UNL1        0.0000
     12 C          61.1929   90.2794   12.1788 C.ar    1  UNL1        0.0000
     13 C          63.6180   87.5898   15.7523 C.ar    1  UNL1        0.0230
     14 C          62.9819   88.7111   16.5193 C.ar    1  UNL1        0.0040
     15 C          63.2225   89.9844   15.7637 C.ar    1  UNL1        0.0067
     16 C          64.0073   89.6500   14.5298 C.ar    1  UNL1        0.0307
     17 S          64.2517   88.1701   14.5228 S.2     1  UNL1       -0.0899
     18 N          62.3959   85.5302   16.7596 N.3     1  UNL1       -0.3170
     19 C          63.6201   86.1423   16.1459 C.3     1  UNL1        0.0987
     20 H          62.5730   84.5465   16.9629 H       1  UNL1        0.1192
     21 H          61.6143   85.6075   16.1088 H       1  UNL1        0.1192
@<TRIPOS>BOND
     1    18    19    1
     2    19    13    1
     3    13    14   ar
     4    14    15   ar
     5    15    16   ar
     6    16     1    1
     7     1     2   ar
     8     2     3   ar
     9     3     4   ar
    10     4     5   ar
    11     5     6   ar
    12     6     7    1
    13     7     8   ar
    14     8     9   ar
    15     9    10   ar
    16    10    11   ar
    17    11    12   ar
    18    16    17   ar
    19    17    13   ar
    20     6     1   ar
    21    12     7   ar
    22    18    20    1
    23    18    21    1
