@<TRIPOS>MOLECULE
*****
 23 25 0 0 0
SMALL
GASTEIGER

@<TRIPOS>ATOM
      1 S          60.2967   88.2364   10.0990 S.3     1  UNL1       -0.0709
      2 C          61.1491   87.0180   10.2962 C.2     1  UNL1        0.1901
      3 N          61.9603   86.3289    9.2393 N.2     1  UNL1       -0.2200
      4 C          62.6525   85.1598    9.8749 C.2     1  UNL1        0.0975
      5 C          63.5824   84.1214    9.3208 C.2     1  UNL1        0.0232
      6 C          64.1288   83.0495   10.2165 C.2     1  UNL1        0.0343
      7 C          63.7454   83.0159   11.6663 C.2     1  UNL1        0.1223
      8 C          62.8155   84.0543   12.2203 C.3     1  UNL1        0.1112
      9 C          62.2691   85.1262   11.3246 C.2     1  UNL1        0.0863
     10 N          61.3399   86.2746   11.5850 N.2     1  UNL1       -0.2236
     11 O          64.2920   81.9439   12.5620 O.2     1  UNL1       -0.4753
     12 C          63.3879   81.2462   13.5345 C.3     1  UNL1        0.2520
     13 C          60.9366   89.5574    9.7905 C.3     1  UNL1        0.0915
     14 C          62.9436   90.3818   13.1135 C.ar    1  UNL1        0.1415
     15 C          61.9119   89.8132   12.1850 C.ar    1  UNL1        0.0337
     16 C          61.9684   90.1261   10.7190 C.ar    1  UNL1       -0.0049
     17 C          63.0566   91.0075   10.1816 C.ar    1  UNL1        0.0337
     18 C          64.0883   91.5761   11.1101 C.ar    1  UNL1        0.1415
     19 C          64.0319   91.2633   12.5760 C.ar    1  UNL1        0.0737
     20 C          63.8377   90.7396   15.5265 C.3     1  UNL1        0.2525
     21 O          62.8872   90.0690   14.5794 O.3     1  UNL1       -0.4713
     22 O          65.1765   92.4575   10.5727 O.3     1  UNL1       -0.4713
     23 C          65.8764   93.4240   11.4817 C.3     1  UNL1        0.2525
@<TRIPOS>BOND
     1    20    21    1
     2    21    14    1
     3    14    15   ar
     4    15    16   ar
     5    16    13    1
     6    13     1    1
     7     1     2    1
     8     2     3    2
     9     3     4    1
    10     4     5    2
    11     5     6    1
    12     6     7    2
    13     7    11    1
    14    11    12    1
    15     7     8    1
    16     8     9    1
    17     9    10    2
    18    16    17   ar
    19    17    18   ar
    20    18    22    1
    21    22    23    1
    22    18    19   ar
    23    19    14   ar
    24    10     2    1
    25     9     4    1
@<TRIPOS>MOLECULE
*****
 23 25 0 0 0
SMALL
GASTEIGER

@<TRIPOS>ATOM
      1 S          64.4158   88.7037   14.7782 S.3     1  UNL1       -0.0709
      2 C          64.1144   87.2877   14.3856 C.2     1  UNL1        0.1901
      3 N          63.4713   86.8458   13.1045 N.2     1  UNL1       -0.2200
      4 C          63.3626   85.3500   13.1323 C.2     1  UNL1        0.0975
      5 C          62.8136   84.3650   12.1431 C.2     1  UNL1        0.0232
      6 C          62.8405   82.8975   12.4523 C.2     1  UNL1        0.0343
      7 C          63.4164   82.4150   13.7506 C.2     1  UNL1        0.1223
      8 C          63.9653   83.3999   14.7397 C.3     1  UNL1        0.1112
      9 C          63.9384   84.8675   14.4306 C.2     1  UNL1        0.0863
     10 N          64.4030   86.0650   15.2051 N.2     1  UNL1       -0.2236
     11 O          63.4432   80.9474   14.0597 O.2     1  UNL1       -0.4753
     12 C          62.3647   80.0495   13.5301 C.3     1  UNL1        0.2520
     13 C          63.9893   89.8351   13.8905 C.3     1  UNL1        0.0915
     14 C          66.5059   92.7462   14.8616 C.ar    1  UNL1        0.1415
     15 C          65.6594   91.5120   14.9626 C.ar    1  UNL1        0.0337
     16 C          64.8358   91.0693   13.7895 C.ar    1  UNL1       -0.0049
     17 C          64.8588   91.8608   12.5156 C.ar    1  UNL1        0.0337
     18 C          65.7053   93.0950   12.4147 C.ar    1  UNL1        0.1415
     19 C          66.5288   93.5377   13.5876 C.ar    1  UNL1        0.0737
     20 C          68.7578   93.6011   15.8352 C.3     1  UNL1        0.2525
     21 O          67.3294   93.1888   16.0345 O.3     1  UNL1       -0.4713
     22 O          65.7283   93.8866   11.1407 O.3     1  UNL1       -0.4713
     23 C          66.1954   95.3119   11.1517 C.3     1  UNL1        0.2525
@<TRIPOS>BOND
     1    20    21    1
     2    21    14    1
     3    14    15   ar
     4    15    16   ar
     5    16    13    1
     6    13     1    1
     7     1     2    1
     8     2     3    2
     9     3     4    1
    10     4     5    2
    11     5     6    1
    12     6     7    2
    13     7    11    1
    14    11    12    1
    15     7     8    1
    16     8     9    1
    17     9    10    2
    18    16    17   ar
    19    17    18   ar
    20    18    22    1
    21    22    23    1
    22    18    19   ar
    23    19    14   ar
    24    10     2    1
    25     9     4    1
@<TRIPOS>MOLECULE
*****
 23 25 0 0 0
SMALL
GASTEIGER

@<TRIPOS>ATOM
      1 S          64.2988   88.7843   14.6445 S.3     1  UNL1       -0.0709
      2 C          63.9918   87.3597   14.2893 C.2     1  UNL1        0.1901
      3 N          63.4423   86.8761   12.9801 N.2     1  UNL1       -0.2200
      4 C          63.2913   85.3860   13.0626 C.2     1  UNL1        0.0975
      5 C          62.7974   84.3710   12.0749 C.2     1  UNL1        0.0232
      6 C          62.7596   82.9185   12.4475 C.2     1  UNL1        0.0343
      7 C          63.2158   82.4811   13.8079 C.2     1  UNL1        0.1223
      8 C          63.7097   83.4962   14.7956 C.3     1  UNL1        0.1112
      9 C          63.7475   84.9486   14.4230 C.2     1  UNL1        0.0863
     10 N          64.1804   86.1684   15.1811 N.2     1  UNL1       -0.2236
     11 O          63.1780   81.0286   14.1805 O.2     1  UNL1       -0.4753
     12 C          62.2789   80.0865   13.4362 C.3     1  UNL1        0.2520
     13 C          63.9772   89.8845   13.6769 C.3     1  UNL1        0.0915
     14 C          65.7364   93.1820   12.3421 C.ar    1  UNL1        0.1415
     15 C          64.8840   91.9485   12.3855 C.ar    1  UNL1        0.0337
     16 C          64.8296   91.1180   13.6335 C.ar    1  UNL1       -0.0049
     17 C          65.6275   91.5211   14.8380 C.ar    1  UNL1        0.0337
     18 C          66.4798   92.7546   14.7946 C.ar    1  UNL1        0.1415
     19 C          66.5343   93.5851   13.5466 C.ar    1  UNL1        0.0737
     20 C          66.7615   93.6656   10.0042 C.3     1  UNL1        0.2525
     21 O          65.7909   94.0124   11.0941 O.3     1  UNL1       -0.4713
     22 O          67.2777   93.1577   15.9991 O.3     1  UNL1       -0.4713
     23 C          68.7013   93.6033   15.8410 C.3     1  UNL1        0.2525
@<TRIPOS>BOND
     1    20    21    1
     2    21    14    1
     3    14    15   ar
     4    15    16   ar
     5    16    13    1
     6    13     1    1
     7     1     2    1
     8     2     3    2
     9     3     4    1
    10     4     5    2
    11     5     6    1
    12     6     7    2
    13     7    11    1
    14    11    12    1
    15     7     8    1
    16     8     9    1
    17     9    10    2
    18    16    17   ar
    19    17    18   ar
    20    18    22    1
    21    22    23    1
    22    18    19   ar
    23    19    14   ar
    24    10     2    1
    25     9     4    1
@<TRIPOS>MOLECULE
*****
 23 25 0 0 0
SMALL
GASTEIGER

@<TRIPOS>ATOM
      1 S          60.9316   89.1059   10.5584 S.3     1  UNL1       -0.0709
      2 C          62.0531   89.6683   11.3805 C.2     1  UNL1        0.1901
      3 N          62.5879   89.0884   12.6563 N.2     1  UNL1       -0.2200
      4 C          63.7021   89.9711   13.1355 C.2     1  UNL1        0.0975
      5 C          64.5964   89.8954   14.3372 C.2     1  UNL1        0.0232
      6 C          65.6445   90.9452   14.5594 C.2     1  UNL1        0.0343
      7 C          65.7982   92.0707   13.5797 C.2     1  UNL1        0.1223
      8 C          64.9038   92.1464   12.3780 C.3     1  UNL1        0.1112
      9 C          63.8558   91.0966   12.1558 C.2     1  UNL1        0.0863
     10 N          62.8366   90.9094   11.0712 N.2     1  UNL1       -0.2236
     11 O          66.8464   93.1206   13.8019 O.2     1  UNL1       -0.4753
     12 C          67.9840   92.8572   14.7434 C.3     1  UNL1        0.2520
     13 C          60.4876   87.6881   10.7655 C.3     1  UNL1        0.0915
     14 C          62.6545   85.1670    8.5978 C.ar    1  UNL1        0.1415
     15 C          61.7413   86.2997    8.9624 C.ar    1  UNL1        0.0337
     16 C          61.4009   86.5554   10.4008 C.ar    1  UNL1       -0.0049
     17 C          61.9736   85.6784   11.4744 C.ar    1  UNL1        0.0337
     18 C          62.8869   84.5457   11.1098 C.ar    1  UNL1        0.1415
     19 C          63.2273   84.2900    9.6715 C.ar    1  UNL1        0.0737
     20 C          61.9199   84.5069    6.1947 C.3     1  UNL1        0.2525
     21 O          62.9949   84.9113    7.1595 O.3     1  UNL1       -0.4713
     22 O          63.4596   83.6686   12.1834 O.3     1  UNL1       -0.4713
     23 C          62.7101   82.4509   12.6363 C.3     1  UNL1        0.2525
@<TRIPOS>BOND
     1    20    21    1
     2    21    14    1
     3    14    15   ar
     4    15    16   ar
     5    16    13    1
     6    13     1    1
     7     1     2    1
     8     2     3    2
     9     3     4    1
    10     4     5    2
    11     5     6    1
    12     6     7    2
    13     7    11    1
    14    11    12    1
    15     7     8    1
    16     8     9    1
    17     9    10    2
    18    16    17   ar
    19    17    18   ar
    20    18    22    1
    21    22    23    1
    22    18    19   ar
    23    19    14   ar
    24    10     2    1
    25     9     4    1
@<TRIPOS>MOLECULE
*****
 23 25 0 0 0
SMALL
GASTEIGER

@<TRIPOS>ATOM
      1 S          64.4071   88.8399   14.7215 S.3     1  UNL1       -0.0709
      2 C          64.1280   87.4164   14.3396 C.2     1  UNL1        0.1901
      3 N          63.4529   86.9573   13.0812 N.2     1  UNL1       -0.2200
      4 C          63.3827   85.4593   13.1128 C.2     1  UNL1        0.0975
      5 C          62.8251   84.4600   12.1431 C.2     1  UNL1        0.0232
      6 C          62.8993   82.9939   12.4513 C.2     1  UNL1        0.0343
      7 C          63.5311   82.5271   13.7292 C.2     1  UNL1        0.1223
      8 C          64.0886   83.5265   14.6989 C.3     1  UNL1        0.1112
      9 C          64.0144   84.9926   14.3907 C.2     1  UNL1        0.0863
     10 N          64.4751   86.2021   15.1489 N.2     1  UNL1       -0.2236
     11 O          63.6053   81.0609   14.0373 O.2     1  UNL1       -0.4753
     12 C          62.4606   80.1603   13.6787 C.3     1  UNL1        0.2520
     13 C          63.4397   89.9217   14.3423 C.3     1  UNL1        0.0915
     14 C          64.3101   91.8916   11.0088 C.ar    1  UNL1        0.1415
     15 C          64.3752   91.4070   12.4269 C.ar    1  UNL1        0.0337
     16 C          63.3746   90.4062   12.9242 C.ar    1  UNL1       -0.0049
     17 C          62.3090   89.8900   12.0034 C.ar    1  UNL1        0.0337
     18 C          62.2439   90.3746   10.5853 C.ar    1  UNL1        0.1415
     19 C          63.2444   91.3753   10.0880 C.ar    1  UNL1        0.0737
     20 C          65.9450   93.8579   11.4684 C.3     1  UNL1        0.2525
     21 O          65.3107   92.8924   10.5115 O.3     1  UNL1       -0.4713
     22 O          61.1782   89.8584    9.6645 O.3     1  UNL1       -0.4713
     23 C          61.0631   88.3861    9.4013 C.3     1  UNL1        0.2525
@<TRIPOS>BOND
     1    20    21    1
     2    21    14    1
     3    14    15   ar
     4    15    16   ar
     5    16    13    1
     6    13     1    1
     7     1     2    1
     8     2     3    2
     9     3     4    1
    10     4     5    2
    11     5     6    1
    12     6     7    2
    13     7    11    1
    14    11    12    1
    15     7     8    1
    16     8     9    1
    17     9    10    2
    18    16    17   ar
    19    17    18   ar
    20    18    22    1
    21    22    23    1
    22    18    19   ar
    23    19    14   ar
    24    10     2    1
    25     9     4    1
@<TRIPOS>MOLECULE
*****
 23 25 0 0 0
SMALL
GASTEIGER

@<TRIPOS>ATOM
      1 S          62.3615   88.5561   11.1977 S.3     1  UNL1       -0.0709
      2 C          62.7173   87.3185   11.9671 C.2     1  UNL1        0.1901
      3 N          63.6120   87.2545   13.1693 N.2     1  UNL1       -0.2200
      4 C          63.6885   85.8242   13.6146 C.2     1  UNL1        0.0975
      5 C          64.4203   85.1625   14.7444 C.2     1  UNL1        0.0232
      6 C          64.3047   83.6808   14.9472 C.2     1  UNL1        0.0343
      7 C          63.4573   82.8608   14.0201 C.2     1  UNL1        0.1223
      8 C          62.7255   83.5225   12.8903 C.3     1  UNL1        0.1112
      9 C          62.8411   85.0042   12.6875 C.2     1  UNL1        0.0863
     10 N          62.2408   85.9277   11.6693 N.2     1  UNL1       -0.2236
     11 O          63.3417   81.3790   14.2230 O.2     1  UNL1       -0.4753
     12 C          62.5329   80.5522   13.2680 C.3     1  UNL1        0.2520
     13 C          62.2528   89.8740   11.9055 C.3     1  UNL1        0.0915
     14 C          65.2222   92.4163   11.2208 C.ar    1  UNL1        0.1415
     15 C          63.9980   91.5763   11.0075 C.ar    1  UNL1        0.0337
     16 C          63.4770   90.7140   12.1189 C.ar    1  UNL1       -0.0049
     17 C          64.1804   90.6918   13.4436 C.ar    1  UNL1        0.0337
     18 C          65.4046   91.5319   13.6569 C.ar    1  UNL1        0.1415
     19 C          65.9256   92.3941   12.5456 C.ar    1  UNL1        0.0737
     20 C          66.8922   94.2102   10.3586 C.3     1  UNL1        0.2525
     21 O          65.7432   93.2786   10.1095 O.3     1  UNL1       -0.4713
     22 O          66.1079   91.5097   14.9816 O.3     1  UNL1       -0.4713
     23 C          66.5781   92.7915   15.6027 C.3     1  UNL1        0.2525
@<TRIPOS>BOND
     1    20    21    1
     2    21    14    1
     3    14    15   ar
     4    15    16   ar
     5    16    13    1
     6    13     1    1
     7     1     2    1
     8     2     3    2
     9     3     4    1
    10     4     5    2
    11     5     6    1
    12     6     7    2
    13     7    11    1
    14    11    12    1
    15     7     8    1
    16     8     9    1
    17     9    10    2
    18    16    17   ar
    19    17    18   ar
    20    18    22    1
    21    22    23    1
    22    18    19   ar
    23    19    14   ar
    24    10     2    1
    25     9     4    1
@<TRIPOS>MOLECULE
*****
 23 25 0 0 0
SMALL
GASTEIGER

@<TRIPOS>ATOM
      1 S          62.8839   89.7153   12.6886 S.3     1  UNL1       -0.0709
      2 C          62.2132   89.0615   11.5170 C.2     1  UNL1        0.1901
      3 N          61.1808   89.6899   10.6286 N.2     1  UNL1       -0.2200
      4 C          60.7866   88.6813    9.5906 C.2     1  UNL1        0.0975
      5 C          59.8113   88.7410    8.4526 C.2     1  UNL1        0.0232
      6 C          59.6248   87.5489    7.5614 C.2     1  UNL1        0.0343
      7 C          60.4136   86.2972    7.8083 C.2     1  UNL1        0.1223
      8 C          61.3889   86.2375    8.9464 C.3     1  UNL1        0.1112
      9 C          61.5754   87.4296    9.8375 C.2     1  UNL1        0.0863
     10 N          62.4571   87.6646   11.0281 N.2     1  UNL1       -0.2236
     11 O          60.2271   85.1051    6.9171 O.2     1  UNL1       -0.4753
     12 C          61.4173   84.4517    6.2797 C.3     1  UNL1        0.2520
     13 C          63.2644   91.1647   12.6222 C.3     1  UNL1        0.0915
     14 C          66.8321   92.5984   11.6394 C.ar    1  UNL1        0.1415
     15 C          65.3903   92.1963   11.5422 C.ar    1  UNL1        0.0337
     16 C          64.7062   91.5668   12.7194 C.ar    1  UNL1       -0.0049
     17 C          65.4640   91.3395   13.9938 C.ar    1  UNL1        0.0337
     18 C          66.9058   91.7417   14.0911 C.ar    1  UNL1        0.1415
     19 C          67.5899   92.3711   12.9139 C.ar    1  UNL1        0.0737
     20 C          68.4514   92.4160    9.6158 C.3     1  UNL1        0.2525
     21 O          67.5162   93.2279   10.4622 O.3     1  UNL1       -0.4713
     22 O          67.6635   91.5144   15.3655 O.3     1  UNL1       -0.4713
     23 C          68.7638   92.4538   15.7616 C.3     1  UNL1        0.2525
@<TRIPOS>BOND
     1    20    21    1
     2    21    14    1
     3    14    15   ar
     4    15    16   ar
     5    16    13    1
     6    13     1    1
     7     1     2    1
     8     2     3    2
     9     3     4    1
    10     4     5    2
    11     5     6    1
    12     6     7    2
    13     7    11    1
    14    11    12    1
    15     7     8    1
    16     8     9    1
    17     9    10    2
    18    16    17   ar
    19    17    18   ar
    20    18    22    1
    21    22    23    1
    22    18    19   ar
    23    19    14   ar
    24    10     2    1
    25     9     4    1
@<TRIPOS>MOLECULE
*****
 23 25 0 0 0
SMALL
GASTEIGER

@<TRIPOS>ATOM
      1 S          62.8970   89.6959   12.4642 S.3     1  UNL1       -0.0709
      2 C          62.2168   89.0062   11.3190 C.2     1  UNL1        0.1901
      3 N          61.1318   89.5850   10.4601 N.2     1  UNL1       -0.2200
      4 C          60.7466   88.5531    9.4418 C.2     1  UNL1        0.0975
      5 C          59.7340   88.5641    8.3352 C.2     1  UNL1        0.0232
      6 C          59.5684   87.3586    7.4582 C.2     1  UNL1        0.0343
      7 C          60.4154   86.1420    7.6878 C.2     1  UNL1        0.1223
      8 C          61.4280   86.1310    8.7943 C.3     1  UNL1        0.1112
      9 C          61.5935   87.3366    9.6714 C.2     1  UNL1        0.0863
     10 N          62.5022   87.6166   10.8315 N.2     1  UNL1       -0.2236
     11 O          60.2498   84.9364    6.8107 O.2     1  UNL1       -0.4753
     12 C          61.4344   84.3654    6.0892 C.3     1  UNL1        0.2520
     13 C          63.2339   91.1544   12.3682 C.3     1  UNL1        0.0915
     14 C          66.7323   91.8143   14.1218 C.ar    1  UNL1        0.1415
     15 C          65.3218   91.3542   13.9014 C.ar    1  UNL1        0.0337
     16 C          64.6444   91.6145   12.5886 C.ar    1  UNL1       -0.0049
     17 C          65.3777   92.3349   11.4962 C.ar    1  UNL1        0.0337
     18 C          66.7883   92.7950   11.7166 C.ar    1  UNL1        0.1415
     19 C          67.4656   92.5347   13.0294 C.ar    1  UNL1        0.0737
     20 C          68.5861   92.3869   15.8498 C.3     1  UNL1        0.2525
     21 O          67.4097   91.5540   15.4346 O.3     1  UNL1       -0.4713
     22 O          67.5215   93.5154   10.6242 O.3     1  UNL1       -0.4713
     23 C          67.9890   92.7643    9.4129 C.3     1  UNL1        0.2525
@<TRIPOS>BOND
     1    20    21    1
     2    21    14    1
     3    14    15   ar
     4    15    16   ar
     5    16    13    1
     6    13     1    1
     7     1     2    1
     8     2     3    2
     9     3     4    1
    10     4     5    2
    11     5     6    1
    12     6     7    2
    13     7    11    1
    14    11    12    1
    15     7     8    1
    16     8     9    1
    17     9    10    2
    18    16    17   ar
    19    17    18   ar
    20    18    22    1
    21    22    23    1
    22    18    19   ar
    23    19    14   ar
    24    10     2    1
    25     9     4    1
@<TRIPOS>MOLECULE
*****
 23 25 0 0 0
SMALL
GASTEIGER

@<TRIPOS>ATOM
      1 S          63.7253   84.1246   15.3621 S.3     1  UNL1       -0.0709
      2 C          63.7470   85.6228   15.4320 C.2     1  UNL1        0.1901
      3 N          63.1997   86.4614   16.5488 N.2     1  UNL1       -0.2200
      4 C          63.4342   87.9024   16.2043 C.2     1  UNL1        0.0975
      5 C          63.1068   89.1738   16.9297 C.2     1  UNL1        0.0232
      6 C          63.4717   90.4973   16.3253 C.2     1  UNL1        0.0343
      7 C          64.1640   90.5493   14.9956 C.2     1  UNL1        0.1223
      8 C          64.4913   89.2779   14.2703 C.3     1  UNL1        0.1112
      9 C          64.1265   87.9544   14.8746 C.2     1  UNL1        0.0863
     10 N          64.3198   86.5456   14.3973 N.2     1  UNL1       -0.2236
     11 O          64.5289   91.8729   14.3913 O.2     1  UNL1       -0.4753
     12 C          65.9667   92.2025   14.1198 C.3     1  UNL1        0.2520
     13 C          62.6067   83.4231   14.6505 C.3     1  UNL1        0.0915
     14 C          62.8815   80.7559   11.7246 C.ar    1  UNL1        0.1415
     15 C          62.6498   81.3531   13.0810 C.ar    1  UNL1        0.0337
     16 C          62.8384   82.8259   13.2941 C.ar    1  UNL1       -0.0049
     17 C          63.2586   83.7014   12.1510 C.ar    1  UNL1        0.0337
     18 C          63.4903   83.1042   10.7946 C.ar    1  UNL1        0.1415
     19 C          63.3017   81.6315   10.5814 C.ar    1  UNL1        0.0737
     20 C          62.7603   78.7112   10.1263 C.3     1  UNL1        0.2525
     21 O          62.6929   79.2832   11.5114 O.3     1  UNL1       -0.4713
     22 O          63.9105   83.9797    9.6515 O.3     1  UNL1       -0.4713
     23 C          62.9729   85.0244    9.1227 C.3     1  UNL1        0.2525
@<TRIPOS>BOND
     1    20    21    1
     2    21    14    1
     3    14    15   ar
     4    15    16   ar
     5    16    13    1
     6    13     1    1
     7     1     2    1
     8     2     3    2
     9     3     4    1
    10     4     5    2
    11     5     6    1
    12     6     7    2
    13     7    11    1
    14    11    12    1
    15     7     8    1
    16     8     9    1
    17     9    10    2
    18    16    17   ar
    19    17    18   ar
    20    18    22    1
    21    22    23    1
    22    18    19   ar
    23    19    14   ar
    24    10     2    1
    25     9     4    1
