@<TRIPOS>MOLECULE
*****
 31 34 0 0 0
SMALL
GASTEIGER

@<TRIPOS>ATOM
      1 C          62.5492   90.3466   10.9230 C.ar    1  UNL1       -0.0204
      2 C          61.1331   90.8389   10.9729 C.ar    1  UNL1       -0.0042
      3 C          60.0308   90.0136   10.3782 C.ar    1  UNL1       -0.0006
      4 C          60.3445   88.6960    9.7335 C.ar    1  UNL1       -0.0040
      5 C          61.7606   88.2037    9.6835 C.ar    1  UNL1       -0.0181
      6 C          62.8629   89.0291   10.2783 C.ar    1  UNL1       -0.0081
      7 C          65.6469   92.8094   11.2219 C.3     1  UNL1        0.0591
      8 C          64.5446   91.9840   10.6272 C.3     1  UNL1        0.0119
      9 C          63.6515   91.1720   11.5177 C.3     1  UNL1        0.0519
     10 C          63.8608   91.1853   13.0030 C.3     1  UNL1        0.1435
     11 O          62.9678   90.3733   13.8935 O.3     1  UNL1       -0.3816
     12 C          64.9631   92.0107   13.5977 C.3     1  UNL1        0.1642
     13 O          65.1724   92.0240   15.0830 O.3     1  UNL1       -0.3795
     14 C          65.8561   92.8227   12.7071 C.3     1  UNL1        0.1420
     15 O          66.9585   93.6480   13.3019 O.3     1  UNL1       -0.3818
     16 H          63.3326   89.4796   13.9891 H       1  UNL1        0.2105
     17 H          65.9199   92.6032   15.2990 H       1  UNL1        0.2105
     18 H          66.9554   93.5448   14.2664 H       1  UNL1        0.2104
     19 O          67.0811   94.9361   10.8095 O.3     1  UNL1       -0.3819
     20 C          66.5399   93.6214   10.3313 C.3     1  UNL1        0.1396
     21 H          67.6360   95.3284   10.1173 H       1  UNL1        0.2104
     22 C          62.0743   86.8862    9.0389 C.3     1  UNL1        0.0526
     23 C          62.3856   85.6905    9.8893 C.ar    1  UNL1       -0.0178
     24 C          63.1848   84.5547    9.3225 C.ar    1  UNL1       -0.0043
     25 C          63.4961   83.3588   10.1730 C.ar    1  UNL1       -0.0046
     26 C          63.0083   83.2989   11.5901 C.ar    1  UNL1       -0.0225
     27 C          62.2091   84.4347   12.1569 C.ar    1  UNL1       -0.0046
     28 C          61.8977   85.6305   11.3065 C.ar    1  UNL1       -0.0043
     29 C          63.3196   82.1031   12.4405 C.3     1  UNL1        0.0224
     30 C          63.0266   80.6913   12.8538 C.3     1  UNL1        0.0047
     31 C          64.1518   81.4438   13.5000 C.3     1  UNL1        0.0047
@<TRIPOS>BOND
     1    19    20    1
     2     7    20    1
     3     7     8    1
     4     8     9    1
     5     9     1    1
     6     1     2   ar
     7     2     3   ar
     8     3     4   ar
     9     4     5   ar
    10     5    22    1
    11    22    23    1
    12    23    24   ar
    13    24    25   ar
    14    25    26   ar
    15    26    29    1
    16    29    30    1
    17    30    31    1
    18    26    27   ar
    19    27    28   ar
    20     5     6   ar
    21     9    10    1
    22    10    11    1
    23    10    12    1
    24    12    13    1
    25    12    14    1
    26    14    15    1
    27    14     7    1
    28     6     1   ar
    29    28    23   ar
    30    31    29    1
    31    19    21    1
    32    11    16    1
    33    13    17    1
    34    15    18    1
@<TRIPOS>MOLECULE
*****
 31 34 0 0 0
SMALL
GASTEIGER

@<TRIPOS>ATOM
      1 C          61.7790   86.6180   10.3768 C.ar    1  UNL1       -0.0204
      2 C          60.5569   86.3870    9.5382 C.ar    1  UNL1       -0.0042
      3 C          59.8780   87.5442    8.8674 C.ar    1  UNL1       -0.0006
      4 C          60.4211   88.9323    9.0352 C.ar    1  UNL1       -0.0040
      5 C          61.6431   89.1633    9.8738 C.ar    1  UNL1       -0.0181
      6 C          62.3221   88.0060   10.5446 C.ar    1  UNL1       -0.0081
      7 C          63.0090   84.1159   13.2011 C.3     1  UNL1        0.0591
      8 C          62.3301   85.2730   12.5303 C.3     1  UNL1        0.0119
      9 C          62.4579   85.4607   11.0476 C.3     1  UNL1        0.0519
     10 C          63.2647   84.4913   10.2357 C.3     1  UNL1        0.1435
     11 O          63.3926   84.6790    8.7530 O.3     1  UNL1       -0.3816
     12 C          63.9436   83.3341   10.9065 C.3     1  UNL1        0.1642
     13 O          64.7505   82.3646   10.0946 O.3     1  UNL1       -0.3795
     14 C          63.8157   83.1464   12.3892 C.3     1  UNL1        0.1420
     15 O          64.4947   81.9892   13.0600 O.3     1  UNL1       -0.3818
     16 H          64.1501   85.2547    8.5641 H       1  UNL1        0.2105
     17 H          65.1183   81.6822   10.6777 H       1  UNL1        0.2105
     18 H          64.9700   81.4646   12.3969 H       1  UNL1        0.2104
     19 O          62.6265   82.5617   15.2476 O.3     1  UNL1       -0.3819
     20 C          62.8811   83.9282   14.6838 C.3     1  UNL1        0.1396
     21 H          62.5712   82.6160   16.2145 H       1  UNL1        0.2104
     22 C          62.1862   90.5514   10.0416 C.3     1  UNL1        0.0526
     23 C          63.1531   90.8496   11.1489 C.ar    1  UNL1       -0.0178
     24 C          64.2984   91.7887   10.9119 C.ar    1  UNL1       -0.0043
     25 C          65.2653   92.0870   12.0194 C.ar    1  UNL1       -0.0046
     26 C          65.0867   91.4461   13.3637 C.ar    1  UNL1       -0.0225
     27 C          63.9414   90.5070   13.6007 C.ar    1  UNL1       -0.0046
     28 C          62.9745   90.2087   12.4934 C.ar    1  UNL1       -0.0043
     29 C          66.0535   91.7444   14.4711 C.3     1  UNL1        0.0224
     30 C          66.3571   92.3845   15.7932 C.3     1  UNL1        0.0047
     31 C          67.4245   91.6208   15.0670 C.3     1  UNL1        0.0047
@<TRIPOS>BOND
     1    19    20    1
     2     7    20    1
     3     7     8    1
     4     8     9    1
     5     9     1    1
     6     1     2   ar
     7     2     3   ar
     8     3     4   ar
     9     4     5   ar
    10     5    22    1
    11    22    23    1
    12    23    24   ar
    13    24    25   ar
    14    25    26   ar
    15    26    29    1
    16    29    30    1
    17    30    31    1
    18    26    27   ar
    19    27    28   ar
    20     5     6   ar
    21     9    10    1
    22    10    11    1
    23    10    12    1
    24    12    13    1
    25    12    14    1
    26    14    15    1
    27    14     7    1
    28     6     1   ar
    29    28    23   ar
    30    31    29    1
    31    19    21    1
    32    11    16    1
    33    13    17    1
    34    15    18    1
@<TRIPOS>MOLECULE
*****
 31 34 0 0 0
SMALL
GASTEIGER

@<TRIPOS>ATOM
      1 C          62.5326   86.1127   11.2411 C.ar    1  UNL1       -0.0204
      2 C          62.1858   85.9417    9.7918 C.ar    1  UNL1       -0.0042
      3 C          61.7971   87.1334    8.9679 C.ar    1  UNL1       -0.0006
      4 C          61.7553   88.4962    9.5934 C.ar    1  UNL1       -0.0040
      5 C          62.1021   88.6672   11.0427 C.ar    1  UNL1       -0.0181
      6 C          62.4908   87.4754   11.8665 C.ar    1  UNL1       -0.0081
      7 C          63.0357   82.3447   12.3807 C.3     1  UNL1        0.0591
      8 C          62.6471   83.5364   11.5570 C.3     1  UNL1        0.0119
      9 C          62.9213   84.9209   12.0649 C.3     1  UNL1        0.0519
     10 C          63.5841   85.1136   13.3966 C.3     1  UNL1        0.1435
     11 O          63.8582   86.4981   13.9046 O.3     1  UNL1       -0.3816
     12 C          63.9727   83.9219   14.2204 C.3     1  UNL1        0.1642
     13 O          64.6355   84.1146   15.5522 O.3     1  UNL1       -0.3795
     14 C          63.6985   82.5374   13.7124 C.3     1  UNL1        0.1420
     15 O          64.0872   81.3456   14.5363 O.3     1  UNL1       -0.3818
     16 H          63.0870   86.8206   14.3967 H       1  UNL1        0.2105
     17 H          64.8187   83.2493   15.9504 H       1  UNL1        0.2105
     18 H          64.5008   81.6439   15.3614 H       1  UNL1        0.2104
     19 O          62.3601   79.8763   12.8288 O.3     1  UNL1       -0.3819
     20 C          62.7616   80.9602   11.8728 C.3     1  UNL1        0.1396
     21 H          62.2219   79.0495   12.3408 H       1  UNL1        0.2104
     22 C          62.0603   90.0299   11.6682 C.3     1  UNL1        0.0526
     23 C          63.2124   90.5085   12.5009 C.ar    1  UNL1       -0.0178
     24 C          63.4057   89.9768   13.8901 C.ar    1  UNL1       -0.0043
     25 C          64.5579   90.4555   14.7228 C.ar    1  UNL1       -0.0046
     26 C          65.5167   91.4659   14.1663 C.ar    1  UNL1       -0.0225
     27 C          65.3234   91.9977   12.7771 C.ar    1  UNL1       -0.0046
     28 C          64.1713   91.5190   11.9444 C.ar    1  UNL1       -0.0043
     29 C          66.6688   91.9445   14.9990 C.3     1  UNL1        0.0224
     30 C          67.2384   92.9094   15.9963 C.3     1  UNL1        0.0047
     31 C          68.0948   91.8088   15.4441 C.3     1  UNL1        0.0047
@<TRIPOS>BOND
     1    19    20    1
     2     7    20    1
     3     7     8    1
     4     8     9    1
     5     9     1    1
     6     1     2   ar
     7     2     3   ar
     8     3     4   ar
     9     4     5   ar
    10     5    22    1
    11    22    23    1
    12    23    24   ar
    13    24    25   ar
    14    25    26   ar
    15    26    29    1
    16    29    30    1
    17    30    31    1
    18    26    27   ar
    19    27    28   ar
    20     5     6   ar
    21     9    10    1
    22    10    11    1
    23    10    12    1
    24    12    13    1
    25    12    14    1
    26    14    15    1
    27    14     7    1
    28     6     1   ar
    29    28    23   ar
    30    31    29    1
    31    19    21    1
    32    11    16    1
    33    13    17    1
    34    15    18    1
@<TRIPOS>MOLECULE
*****
 31 34 0 0 0
SMALL
GASTEIGER

@<TRIPOS>ATOM
      1 C          62.3477   89.7925   10.9341 C.ar    1  UNL1       -0.0204
      2 C          61.0189   90.3502   10.5177 C.ar    1  UNL1       -0.0042
      3 C          60.1525   89.5877    9.5596 C.ar    1  UNL1       -0.0006
      4 C          60.6148   88.2676    9.0179 C.ar    1  UNL1       -0.0040
      5 C          61.9436   87.7099    9.4343 C.ar    1  UNL1       -0.0181
      6 C          62.8100   88.4724   10.3924 C.ar    1  UNL1       -0.0081
      7 C          64.0310   91.0063   14.3169 C.3     1  UNL1        0.0591
      8 C          63.1646   90.2439   13.3588 C.3     1  UNL1        0.0119
      9 C          63.2141   90.5551   11.8922 C.3     1  UNL1        0.0519
     10 C          64.1299   91.6287   11.3838 C.3     1  UNL1        0.1435
     11 O          64.1794   91.9399    9.9173 O.3     1  UNL1       -0.3816
     12 C          64.9963   92.3911   12.3419 C.3     1  UNL1        0.1642
     13 O          65.9122   93.4648   11.8335 O.3     1  UNL1       -0.3795
     14 C          64.9468   92.0800   13.8084 C.3     1  UNL1        0.1420
     15 O          65.8133   92.8425   14.7666 O.3     1  UNL1       -0.3818
     16 H          63.5065   92.6055    9.7051 H       1  UNL1        0.2105
     17 H          66.3971   93.8551   12.5774 H       1  UNL1        0.2105
     18 H          66.3398   93.4943   14.2779 H       1  UNL1        0.2104
     19 O          63.6737   91.7817   16.7707 O.3     1  UNL1       -0.3819
     20 C          63.9816   90.6952   15.7834 C.3     1  UNL1        0.1396
     21 H          63.6809   91.4143   17.6684 H       1  UNL1        0.2104
     22 C          62.4060   86.3898    8.8926 C.3     1  UNL1        0.0526
     23 C          62.6265   85.2335    9.8222 C.ar    1  UNL1       -0.0178
     24 C          63.4487   84.0601    9.3778 C.ar    1  UNL1       -0.0043
     25 C          63.6692   82.9038   10.3075 C.ar    1  UNL1       -0.0046
     26 C          63.0677   82.9208   11.6815 C.ar    1  UNL1       -0.0225
     27 C          62.2455   84.0941   12.1258 C.ar    1  UNL1       -0.0046
     28 C          62.0250   85.2504   11.1962 C.ar    1  UNL1       -0.0043
     29 C          63.2882   81.7644   12.6111 C.3     1  UNL1        0.0224
     30 C          62.8701   80.4242   13.1392 C.3     1  UNL1        0.0047
     31 C          64.0883   81.1018   13.6931 C.3     1  UNL1        0.0047
@<TRIPOS>BOND
     1    19    20    1
     2     7    20    1
     3     7     8    1
     4     8     9    1
     5     9     1    1
     6     1     2   ar
     7     2     3   ar
     8     3     4   ar
     9     4     5   ar
    10     5    22    1
    11    22    23    1
    12    23    24   ar
    13    24    25   ar
    14    25    26   ar
    15    26    29    1
    16    29    30    1
    17    30    31    1
    18    26    27   ar
    19    27    28   ar
    20     5     6   ar
    21     9    10    1
    22    10    11    1
    23    10    12    1
    24    12    13    1
    25    12    14    1
    26    14    15    1
    27    14     7    1
    28     6     1   ar
    29    28    23   ar
    30    31    29    1
    31    19    21    1
    32    11    16    1
    33    13    17    1
    34    15    18    1
@<TRIPOS>MOLECULE
*****
 31 34 0 0 0
SMALL
GASTEIGER

@<TRIPOS>ATOM
      1 C          62.9031   87.5495   12.3438 C.ar    1  UNL1       -0.0204
      2 C          63.5274   88.6792   13.1081 C.ar    1  UNL1       -0.0042
      3 C          64.3879   88.3915   14.3025 C.ar    1  UNL1       -0.0006
      4 C          64.6242   86.9740   14.7327 C.ar    1  UNL1       -0.0040
      5 C          63.9999   85.8443   13.9685 C.ar    1  UNL1       -0.0181
      6 C          63.1394   86.1321   12.7740 C.ar    1  UNL1       -0.0081
      7 C          61.0439   87.1024    8.8662 C.3     1  UNL1        0.0591
      8 C          61.9044   86.8147   10.0607 C.3     1  UNL1        0.0119
      9 C          62.0425   87.8373   11.1493 C.3     1  UNL1        0.0519
     10 C          61.3201   89.1476   11.0436 C.3     1  UNL1        0.1435
     11 O          61.4583   90.1702   12.1323 O.3     1  UNL1       -0.3816
     12 C          60.4596   89.4353    9.8492 C.3     1  UNL1        0.1642
     13 O          59.7372   90.7456    9.7434 O.3     1  UNL1       -0.3795
     14 C          60.3215   88.4127    8.7605 C.3     1  UNL1        0.1420
     15 O          59.4610   88.7005    7.5660 O.3     1  UNL1       -0.3818
     16 H          62.2249   90.7356   11.9495 H       1  UNL1        0.2105
     17 H          59.2299   90.7694    8.9169 H       1  UNL1        0.2105
     18 H          59.0698   89.5837    7.6546 H       1  UNL1        0.2104
     19 O          59.5436   85.6729    7.2992 O.3     1  UNL1       -0.3819
     20 C          60.9058   86.0798    7.7775 C.3     1  UNL1        0.1396
     21 H          59.6323   85.0085    6.5981 H       1  UNL1        0.2104
     22 C          64.2362   84.4269   14.3986 C.3     1  UNL1        0.0526
     23 C          63.9078   83.2965   13.4691 C.ar    1  UNL1       -0.0178
     24 C          64.4659   83.2841   12.0768 C.ar    1  UNL1       -0.0043
     25 C          64.1375   82.1535   11.1472 C.ar    1  UNL1       -0.0046
     26 C          63.2511   81.0354   11.6099 C.ar    1  UNL1       -0.0225
     27 C          62.6931   81.0478   13.0022 C.ar    1  UNL1       -0.0046
     28 C          63.0214   82.1783   13.9318 C.ar    1  UNL1       -0.0043
     29 C          62.9227   79.9049   10.6803 C.3     1  UNL1        0.0224
     30 C          62.5289   79.4159    9.3181 C.3     1  UNL1        0.0047
     31 C          62.7478   78.4360   10.4324 C.3     1  UNL1        0.0047
@<TRIPOS>BOND
     1    19    20    1
     2     7    20    1
     3     7     8    1
     4     8     9    1
     5     9     1    1
     6     1     2   ar
     7     2     3   ar
     8     3     4   ar
     9     4     5   ar
    10     5    22    1
    11    22    23    1
    12    23    24   ar
    13    24    25   ar
    14    25    26   ar
    15    26    29    1
    16    29    30    1
    17    30    31    1
    18    26    27   ar
    19    27    28   ar
    20     5     6   ar
    21     9    10    1
    22    10    11    1
    23    10    12    1
    24    12    13    1
    25    12    14    1
    26    14    15    1
    27    14     7    1
    28     6     1   ar
    29    28    23   ar
    30    31    29    1
    31    19    21    1
    32    11    16    1
    33    13    17    1
    34    15    18    1
@<TRIPOS>MOLECULE
*****
 31 34 0 0 0
SMALL
GASTEIGER

@<TRIPOS>ATOM
      1 C          63.0482   88.7787   12.2446 C.ar    1  UNL1       -0.0204
      2 C          63.5359   90.1428   12.6338 C.ar    1  UNL1       -0.0042
      3 C          64.4191   90.3091   13.8347 C.ar    1  UNL1       -0.0006
      4 C          64.8148   89.1113   14.6464 C.ar    1  UNL1       -0.0040
      5 C          64.3271   87.7472   14.2572 C.ar    1  UNL1       -0.0181
      6 C          63.4438   87.5809   13.0563 C.ar    1  UNL1       -0.0081
      7 C          61.3689   87.1985    9.0146 C.3     1  UNL1        0.0591
      8 C          62.2521   87.3648   10.2154 C.3     1  UNL1        0.0119
      9 C          62.1649   88.6124   11.0436 C.3     1  UNL1        0.0519
     10 C          61.1944   89.6937   10.6710 C.3     1  UNL1        0.1435
     11 O          61.1071   90.9413   11.4992 O.3     1  UNL1       -0.3816
     12 C          60.3111   89.5274    9.4701 C.3     1  UNL1        0.1642
     13 O          59.3406   90.6087    9.0973 O.3     1  UNL1       -0.3795
     14 C          60.3984   88.2798    8.6419 C.3     1  UNL1        0.1420
     15 O          59.5151   88.1135    7.4409 O.3     1  UNL1       -0.3818
     16 H          61.7464   91.5927   11.1708 H       1  UNL1        0.2105
     17 H          58.8512   90.3440    8.3028 H       1  UNL1        0.2105
     18 H          58.9524   88.8974    7.3424 H       1  UNL1        0.2104
     19 O          60.2927   85.5310    7.3379 O.3     1  UNL1       -0.3819
     20 C          61.4562   85.9509    8.1863 C.3     1  UNL1        0.1396
     21 H          60.5129   84.7100    6.8706 H       1  UNL1        0.2104
     22 C          64.7227   86.5495   15.0689 C.3     1  UNL1        0.0526
     23 C          64.0827   85.2191   14.8035 C.ar    1  UNL1       -0.0178
     24 C          62.8868   84.7897   15.6006 C.ar    1  UNL1       -0.0043
     25 C          62.2469   83.4592   15.3351 C.ar    1  UNL1       -0.0046
     26 C          62.8029   82.5582   14.2726 C.ar    1  UNL1       -0.0225
     27 C          63.9988   82.9876   13.4755 C.ar    1  UNL1       -0.0046
     28 C          64.6387   84.3180   13.7409 C.ar    1  UNL1       -0.0043
     29 C          62.1629   81.2278   14.0072 C.3     1  UNL1        0.0224
     30 C          62.2541   79.8222   13.4914 C.3     1  UNL1        0.0047
     31 C          60.9633   80.3291   14.0632 C.3     1  UNL1        0.0047
@<TRIPOS>BOND
     1    19    20    1
     2     7    20    1
     3     7     8    1
     4     8     9    1
     5     9     1    1
     6     1     2   ar
     7     2     3   ar
     8     3     4   ar
     9     4     5   ar
    10     5    22    1
    11    22    23    1
    12    23    24   ar
    13    24    25   ar
    14    25    26   ar
    15    26    29    1
    16    29    30    1
    17    30    31    1
    18    26    27   ar
    19    27    28   ar
    20     5     6   ar
    21     9    10    1
    22    10    11    1
    23    10    12    1
    24    12    13    1
    25    12    14    1
    26    14    15    1
    27    14     7    1
    28     6     1   ar
    29    28    23   ar
    30    31    29    1
    31    19    21    1
    32    11    16    1
    33    13    17    1
    34    15    18    1
@<TRIPOS>MOLECULE
*****
 31 34 0 0 0
SMALL
GASTEIGER

@<TRIPOS>ATOM
      1 C          62.7269   86.2633   11.8267 C.ar    1  UNL1       -0.0204
      2 C          61.9659   86.6154   10.5830 C.ar    1  UNL1       -0.0042
      3 C          61.7784   88.0536   10.2004 C.ar    1  UNL1       -0.0006
      4 C          62.3520   89.1397   11.0615 C.ar    1  UNL1       -0.0040
      5 C          63.1131   88.7876   12.3052 C.ar    1  UNL1       -0.0181
      6 C          63.3005   87.3493   12.6878 C.ar    1  UNL1       -0.0081
      7 C          63.2724   82.3437   11.5274 C.3     1  UNL1        0.0591
      8 C          63.0849   83.7819   11.1449 C.3     1  UNL1        0.0119
      9 C          62.9144   84.8250   12.2093 C.3     1  UNL1        0.0519
     10 C          62.9313   84.4299   13.6562 C.3     1  UNL1        0.1435
     11 O          62.7608   85.4730   14.7205 O.3     1  UNL1       -0.3816
     12 C          63.1187   82.9917   14.0387 C.3     1  UNL1        0.1642
     13 O          63.1357   82.5965   15.4857 O.3     1  UNL1       -0.3795
     14 C          63.2893   81.9486   12.9743 C.3     1  UNL1        0.1420
     15 O          63.4767   80.5103   13.3569 O.3     1  UNL1       -0.3818
     16 H          61.8165   85.5933   14.9070 H       1  UNL1        0.2105
     17 H          63.2653   81.6379   15.5575 H       1  UNL1        0.2105
     18 H          63.4631   80.4284   14.3234 H       1  UNL1        0.2104
     19 O          62.8289   79.9433   10.6379 O.3     1  UNL1       -0.3819
     20 C          63.4429   81.3006   10.4631 C.3     1  UNL1        0.1396
     21 H          63.0327   79.3942    9.8647 H       1  UNL1        0.2104
     22 C          63.6867   89.8736   13.1662 C.3     1  UNL1        0.0526
     23 C          64.3823   91.0428   12.5346 C.ar    1  UNL1       -0.0178
     24 C          65.4303   91.7950   13.3000 C.ar    1  UNL1       -0.0043
     25 C          66.1258   92.9643   12.6683 C.ar    1  UNL1       -0.0046
     26 C          65.7734   93.3813   11.2712 C.ar    1  UNL1       -0.0225
     27 C          64.7254   92.6291   10.5058 C.ar    1  UNL1       -0.0046
     28 C          64.0298   91.4599   11.1374 C.ar    1  UNL1       -0.0043
     29 C          66.4690   94.5506   10.6396 C.3     1  UNL1        0.0224
     30 C          67.4600   95.0950    9.6540 C.3     1  UNL1        0.0047
     31 C          66.6828   96.0313   10.5311 C.3     1  UNL1        0.0047
@<TRIPOS>BOND
     1    19    20    1
     2     7    20    1
     3     7     8    1
     4     8     9    1
     5     9     1    1
     6     1     2   ar
     7     2     3   ar
     8     3     4   ar
     9     4     5   ar
    10     5    22    1
    11    22    23    1
    12    23    24   ar
    13    24    25   ar
    14    25    26   ar
    15    26    29    1
    16    29    30    1
    17    30    31    1
    18    26    27   ar
    19    27    28   ar
    20     5     6   ar
    21     9    10    1
    22    10    11    1
    23    10    12    1
    24    12    13    1
    25    12    14    1
    26    14    15    1
    27    14     7    1
    28     6     1   ar
    29    28    23   ar
    30    31    29    1
    31    19    21    1
    32    11    16    1
    33    13    17    1
    34    15    18    1
@<TRIPOS>MOLECULE
*****
 31 34 0 0 0
SMALL
GASTEIGER

@<TRIPOS>ATOM
      1 C          64.0402   89.6412   14.5138 C.ar    1  UNL1       -0.0204
      2 C          63.1407   90.0342   15.6481 C.ar    1  UNL1       -0.0042
      3 C          62.8441   89.0543   16.7443 C.ar    1  UNL1       -0.0006
      4 C          63.4470   87.6812   16.7062 C.ar    1  UNL1       -0.0040
      5 C          64.3464   87.2882   15.5720 C.ar    1  UNL1       -0.0181
      6 C          64.6430   88.2682   14.4757 C.ar    1  UNL1       -0.0081
      7 C          63.8519   91.5543   11.0418 C.3     1  UNL1        0.0591
      8 C          63.5554   90.5743   12.1380 C.3     1  UNL1        0.0119
      9 C          64.3367   90.6212   13.4176 C.3     1  UNL1        0.0519
     10 C          65.4146   91.6481   13.6009 C.3     1  UNL1        0.1435
     11 O          66.1959   91.6950   14.8805 O.3     1  UNL1       -0.3816
     12 C          65.7111   92.6281   12.5047 C.3     1  UNL1        0.1642
     13 O          66.7890   93.6550   12.6881 O.3     1  UNL1       -0.3795
     14 C          64.9298   92.5811   11.2252 C.3     1  UNL1        0.1420
     15 O          65.2264   93.5612   10.1289 O.3     1  UNL1       -0.3818
     16 H          66.9620   91.1038   14.8134 H       1  UNL1        0.2105
     17 H          66.8507   94.2048   11.8913 H       1  UNL1        0.2105
     18 H          65.9447   94.1504   10.4076 H       1  UNL1        0.2104
     19 O          61.8484   90.6436    9.6610 O.3     1  UNL1       -0.3819
     20 C          63.0706   91.5074    9.7622 C.3     1  UNL1        0.1396
     21 H          61.4652   90.7284    8.7740 H       1  UNL1        0.2104
     22 C          64.9493   85.9152   15.5339 C.3     1  UNL1        0.0526
     23 C          64.1011   84.7336   15.1675 C.ar    1  UNL1       -0.0178
     24 C          64.6306   83.6936   14.2252 C.ar    1  UNL1       -0.0043
     25 C          63.7823   82.5120   13.8588 C.ar    1  UNL1       -0.0046
     26 C          62.4046   82.3704   14.4347 C.ar    1  UNL1       -0.0225
     27 C          61.8750   83.4104   15.3770 C.ar    1  UNL1       -0.0046
     28 C          62.7232   84.5920   15.7434 C.ar    1  UNL1       -0.0043
     29 C          61.5563   81.1888   14.0683 C.3     1  UNL1        0.0224
     30 C          60.2326   80.4835   14.0890 C.3     1  UNL1        0.0047
     31 C          61.4108   79.8474   13.4129 C.3     1  UNL1        0.0047
@<TRIPOS>BOND
     1    19    20    1
     2     7    20    1
     3     7     8    1
     4     8     9    1
     5     9     1    1
     6     1     2   ar
     7     2     3   ar
     8     3     4   ar
     9     4     5   ar
    10     5    22    1
    11    22    23    1
    12    23    24   ar
    13    24    25   ar
    14    25    26   ar
    15    26    29    1
    16    29    30    1
    17    30    31    1
    18    26    27   ar
    19    27    28   ar
    20     5     6   ar
    21     9    10    1
    22    10    11    1
    23    10    12    1
    24    12    13    1
    25    12    14    1
    26    14    15    1
    27    14     7    1
    28     6     1   ar
    29    28    23   ar
    30    31    29    1
    31    19    21    1
    32    11    16    1
    33    13    17    1
    34    15    18    1
@<TRIPOS>MOLECULE
*****
 31 34 0 0 0
SMALL
GASTEIGER

@<TRIPOS>ATOM
      1 C          61.8738   86.2999   11.0962 C.ar    1  UNL1       -0.0204
      2 C          60.8758   86.3389    9.9770 C.ar    1  UNL1       -0.0042
      3 C          60.2291   87.6369    9.5938 C.ar    1  UNL1       -0.0006
      4 C          60.5804   88.8960   10.3297 C.ar    1  UNL1       -0.0040
      5 C          61.5783   88.8569   11.4488 C.ar    1  UNL1       -0.0181
      6 C          62.2251   87.5588   11.8321 C.ar    1  UNL1       -0.0081
      7 C          63.0352   83.1851   13.2640 C.3     1  UNL1        0.0591
      8 C          62.3886   84.4831   12.8807 C.3     1  UNL1        0.0119
      9 C          62.5205   85.0018   11.4794 C.3     1  UNL1        0.0519
     10 C          63.2991   84.2224   10.4614 C.3     1  UNL1        0.1435
     11 O          63.4310   84.7411    9.0601 O.3     1  UNL1       -0.3816
     12 C          63.9457   82.9244   10.8447 C.3     1  UNL1        0.1642
     13 O          64.7243   82.1450    9.8266 O.3     1  UNL1       -0.3795
     14 C          63.8138   82.4058   12.2460 C.3     1  UNL1        0.1420
     15 O          64.4605   81.1077   12.6292 O.3     1  UNL1       -0.3818
     16 H          64.2041   85.3240    9.0025 H       1  UNL1        0.2105
     17 H          65.0733   81.3375   10.2354 H       1  UNL1        0.2105
     18 H          64.9204   80.7361   11.8602 H       1  UNL1        0.2104
     19 O          62.4338   81.2620   14.9041 O.3     1  UNL1       -0.3819
     20 C          62.9033   82.6665   14.6653 C.3     1  UNL1        0.1396
     21 H          62.4050   81.0885   15.8580 H       1  UNL1        0.2104
     22 C          61.9296   90.1159   12.1847 C.3     1  UNL1        0.0526
     23 C          63.0845   90.9557   11.7254 C.ar    1  UNL1       -0.0178
     24 C          63.1733   91.3892   10.2922 C.ar    1  UNL1       -0.0043
     25 C          64.3283   92.2290    9.8329 C.ar    1  UNL1       -0.0046
     26 C          65.3943   92.6353   10.8068 C.ar    1  UNL1       -0.0225
     27 C          65.3054   92.2017   12.2400 C.ar    1  UNL1       -0.0046
     28 C          64.1506   91.3619   12.6993 C.ar    1  UNL1       -0.0043
     29 C          66.5491   93.4750   10.3475 C.3     1  UNL1        0.0224
     30 C          67.1525   94.8236   10.0879 C.3     1  UNL1        0.0047
     31 C          67.9461   93.5811    9.8115 C.3     1  UNL1        0.0047
@<TRIPOS>BOND
     1    19    20    1
     2     7    20    1
     3     7     8    1
     4     8     9    1
     5     9     1    1
     6     1     2   ar
     7     2     3   ar
     8     3     4   ar
     9     4     5   ar
    10     5    22    1
    11    22    23    1
    12    23    24   ar
    13    24    25   ar
    14    25    26   ar
    15    26    29    1
    16    29    30    1
    17    30    31    1
    18    26    27   ar
    19    27    28   ar
    20     5     6   ar
    21     9    10    1
    22    10    11    1
    23    10    12    1
    24    12    13    1
    25    12    14    1
    26    14    15    1
    27    14     7    1
    28     6     1   ar
    29    28    23   ar
    30    31    29    1
    31    19    21    1
    32    11    16    1
    33    13    17    1
    34    15    18    1
