@<TRIPOS>MOLECULE
*****
 22 26 0 0 0
SMALL
GASTEIGER

@<TRIPOS>ATOM
      1 C          61.8767   89.8708   11.0549 C.ar    1  UNL1        0.1501
      2 N          62.1364   90.6598    9.8059 N.ar    1  UNL1       -0.1327
      3 N          63.3268   91.5387   10.0520 N.ar    1  UNL1       -0.1291
      4 C          63.8028   91.2928   11.4531 C.ar    1  UNL1        0.1660
      5 C          64.9365   91.8744   12.2446 C.ar    1  UNL1        0.0138
      6 C          65.1740   91.4252   13.6558 C.ar    1  UNL1        0.0003
      7 C          64.2778   90.3944   14.2757 C.ar    1  UNL1        0.0189
      8 C          63.1441   89.8128   13.4842 C.ar    1  UNL1        0.0826
      9 N          62.9066   90.2620   12.0729 N.ar    1  UNL1       -0.2759
     10 C          60.7797   88.8668   11.2515 C.3     1  UNL1        0.0716
     11 C          59.4395   88.2950   11.6077 C.3     1  UNL1        0.0120
     12 C          59.6984   89.7624   11.7796 C.3     1  UNL1        0.0120
     13 CL         63.5803   83.8894    9.4123 Cl      1  UNL1       -0.0822
     14 C          62.8801   85.1338    9.8721 C.ar    1  UNL1        0.0577
     15 C          62.6494   85.3673   11.3358 C.ar    1  UNL1        0.0111
     16 C          61.9493   86.6116   11.7955 C.ar    1  UNL1       -0.0030
     17 C          61.4798   87.6225   10.7916 C.ar    1  UNL1       -0.0160
     18 C          61.7105   87.3890    9.3280 C.ar    1  UNL1       -0.0030
     19 C          62.4107   86.1447    8.8682 C.ar    1  UNL1        0.0111
     20 C          65.8327   92.9052   11.6247 C.3     1  UNL1        0.0254
     21 C          66.3759   94.3030   11.5910 C.3     1  UNL1        0.0048
     22 C          66.8418   93.2929   10.5847 C.3     1  UNL1        0.0048
@<TRIPOS>BOND
     1    13    14    1
     2    14    15   ar
     3    15    16   ar
     4    16    17   ar
     5    17    10    1
     6    10     1    1
     7     1     2   ar
     8     2     3   ar
     9     3     4   ar
    10     4     5   ar
    11     5    20    1
    12    20    21    1
    13    21    22    1
    14     5     6   ar
    15     6     7   ar
    16     7     8   ar
    17     8     9   ar
    18    10    11    1
    19    11    12    1
    20    17    18   ar
    21    18    19   ar
    22    19    14   ar
    23    12    10    1
    24     9     1   ar
    25     9     4   ar
    26    22    20    1
@<TRIPOS>MOLECULE
*****
 22 26 0 0 0
SMALL
GASTEIGER

@<TRIPOS>ATOM
      1 C          62.2206   89.8530   12.0741 C.ar    1  UNL1        0.1501
      2 N          62.2970   89.4607   13.5199 N.ar    1  UNL1       -0.1327
      3 N          63.4835   90.1505   14.1252 N.ar    1  UNL1       -0.1291
      4 C          64.1404   90.9690   13.0534 C.ar    1  UNL1        0.1660
      5 C          65.3484   91.8580   13.0680 C.ar    1  UNL1        0.0138
      6 C          65.7759   92.5632   11.8151 C.ar    1  UNL1        0.0003
      7 C          64.9954   92.3793   10.5475 C.ar    1  UNL1        0.0189
      8 C          63.7873   91.4903   10.5329 C.ar    1  UNL1        0.0826
      9 N          63.3598   90.7851   11.7858 N.ar    1  UNL1       -0.2759
     10 C          61.1864   89.3937   11.0894 C.3     1  UNL1        0.0716
     11 C          59.9610   89.4040   10.2244 C.3     1  UNL1        0.0120
     12 C          60.2765   90.5863   11.0920 C.3     1  UNL1        0.0120
     13 CL         63.3888   83.9855    9.7108 Cl      1  UNL1       -0.0822
     14 C          62.8382   85.3376   10.0555 C.ar    1  UNL1        0.0577
     15 C          62.4418   86.2865    8.9636 C.ar    1  UNL1        0.0111
     16 C          61.8912   87.6385    9.3083 C.ar    1  UNL1       -0.0030
     17 C          61.7370   88.0416   10.7449 C.ar    1  UNL1       -0.0160
     18 C          62.1335   87.0927   11.8368 C.ar    1  UNL1       -0.0030
     19 C          62.6841   85.7406   11.4921 C.ar    1  UNL1        0.0111
     20 C          66.1290   92.0419   14.3357 C.3     1  UNL1        0.0254
     21 C          67.3615   91.7851   15.1512 C.3     1  UNL1        0.0048
     22 C          66.2485   92.6172   15.7159 C.3     1  UNL1        0.0048
@<TRIPOS>BOND
     1    13    14    1
     2    14    15   ar
     3    15    16   ar
     4    16    17   ar
     5    17    10    1
     6    10     1    1
     7     1     2   ar
     8     2     3   ar
     9     3     4   ar
    10     4     5   ar
    11     5    20    1
    12    20    21    1
    13    21    22    1
    14     5     6   ar
    15     6     7   ar
    16     7     8   ar
    17     8     9   ar
    18    10    11    1
    19    11    12    1
    20    17    18   ar
    21    18    19   ar
    22    19    14   ar
    23    12    10    1
    24     9     1   ar
    25     9     4   ar
    26    22    20    1
@<TRIPOS>MOLECULE
*****
 22 26 0 0 0
SMALL
GASTEIGER

@<TRIPOS>ATOM
      1 C          63.7820   84.1016   12.5858 C.ar    1  UNL1        0.1501
      2 N          64.3959   83.8558   11.2395 N.ar    1  UNL1       -0.1327
      3 N          64.0467   82.4589   10.8189 N.ar    1  UNL1       -0.1291
      4 C          63.2170   81.8415   11.9055 C.ar    1  UNL1        0.1660
      5 C          62.5893   80.4860   12.0415 C.ar    1  UNL1        0.0138
      6 C          61.7980   80.1457   13.2695 C.ar    1  UNL1        0.0003
      7 C          61.6344   81.1610   14.3615 C.ar    1  UNL1        0.0189
      8 C          62.2621   82.5165   14.2254 C.ar    1  UNL1        0.0826
      9 N          63.0534   82.8568   12.9974 N.ar    1  UNL1       -0.2759
     10 C          63.8796   85.3697   13.3810 C.3     1  UNL1        0.0716
     11 C          64.2610   86.3207   14.4766 C.3     1  UNL1        0.0120
     12 C          64.7308   84.8969   14.5221 C.3     1  UNL1        0.0120
     13 CL         60.6109   89.0235    9.9219 Cl      1  UNL1       -0.0822
     14 C          61.4281   88.1101   10.7867 C.ar    1  UNL1        0.0577
     15 C          62.5309   88.6691   11.6360 C.ar    1  UNL1        0.0111
     16 C          63.3480   87.7556   12.5008 C.ar    1  UNL1       -0.0030
     17 C          63.0624   86.2831   12.5162 C.ar    1  UNL1       -0.0160
     18 C          61.9596   85.7241   11.6669 C.ar    1  UNL1       -0.0030
     19 C          61.1424   86.6376   10.8021 C.ar    1  UNL1        0.0111
     20 C          62.7529   79.4707   10.9494 C.3     1  UNL1        0.0254
     21 C          62.7706   78.0406   10.4973 C.3     1  UNL1        0.0048
     22 C          63.0185   79.1423    9.5101 C.3     1  UNL1        0.0048
@<TRIPOS>BOND
     1    13    14    1
     2    14    15   ar
     3    15    16   ar
     4    16    17   ar
     5    17    10    1
     6    10     1    1
     7     1     2   ar
     8     2     3   ar
     9     3     4   ar
    10     4     5   ar
    11     5    20    1
    12    20    21    1
    13    21    22    1
    14     5     6   ar
    15     6     7   ar
    16     7     8   ar
    17     8     9   ar
    18    10    11    1
    19    11    12    1
    20    17    18   ar
    21    18    19   ar
    22    19    14   ar
    23    12    10    1
    24     9     1   ar
    25     9     4   ar
    26    22    20    1
@<TRIPOS>MOLECULE
*****
 22 26 0 0 0
SMALL
GASTEIGER

@<TRIPOS>ATOM
      1 C          61.5175   87.4832   10.8836 C.ar    1  UNL1        0.1501
      2 N          61.3822   87.0214   12.3043 N.ar    1  UNL1       -0.1327
      3 N          61.9765   85.6477   12.4037 N.ar    1  UNL1       -0.1291
      4 C          62.4791   85.2606   11.0444 C.ar    1  UNL1        0.1660
      5 C          63.1584   84.0217   10.5408 C.ar    1  UNL1        0.0138
      6 C          63.5540   83.9172    9.0977 C.ar    1  UNL1        0.0003
      7 C          63.2703   85.0516    8.1583 C.ar    1  UNL1        0.0189
      8 C          62.5911   86.2905    8.6619 C.ar    1  UNL1        0.0826
      9 N          62.1954   86.3950   10.1049 N.ar    1  UNL1       -0.2759
     10 C          61.0560   88.8018   10.3374 C.3     1  UNL1        0.0716
     11 C          60.2210   89.8091    9.6038 C.3     1  UNL1        0.0120
     12 C          59.8204   88.3636    9.6082 C.3     1  UNL1        0.0120
     13 CL         65.3566   92.3864   12.4950 Cl      1  UNL1       -0.0822
     14 C          64.2814   91.4902   11.9556 C.ar    1  UNL1        0.0577
     15 C          63.6280   90.4798   12.8511 C.ar    1  UNL1        0.0111
     16 C          62.5529   89.5837   12.3116 C.ar    1  UNL1       -0.0030
     17 C          62.1311   89.6980   10.8767 C.ar    1  UNL1       -0.0160
     18 C          62.7845   90.7084    9.9812 C.ar    1  UNL1       -0.0030
     19 C          63.8597   91.6046   10.5206 C.ar    1  UNL1        0.0111
     20 C          63.4420   82.8873   11.4803 C.3     1  UNL1        0.0254
     21 C          64.2678   82.2856   12.5785 C.3     1  UNL1        0.0048
     22 C          63.1076   81.5241   12.0095 C.3     1  UNL1        0.0048
@<TRIPOS>BOND
     1    13    14    1
     2    14    15   ar
     3    15    16   ar
     4    16    17   ar
     5    17    10    1
     6    10     1    1
     7     1     2   ar
     8     2     3   ar
     9     3     4   ar
    10     4     5   ar
    11     5    20    1
    12    20    21    1
    13    21    22    1
    14     5     6   ar
    15     6     7   ar
    16     7     8   ar
    17     8     9   ar
    18    10    11    1
    19    11    12    1
    20    17    18   ar
    21    18    19   ar
    22    19    14   ar
    23    12    10    1
    24     9     1   ar
    25     9     4   ar
    26    22    20    1
@<TRIPOS>MOLECULE
*****
 22 26 0 0 0
SMALL
GASTEIGER

@<TRIPOS>ATOM
      1 C          60.6316   88.3374   10.1934 C.ar    1  UNL1        0.1501
      2 N          60.0541   88.5765    8.8297 N.ar    1  UNL1       -0.1327
      3 N          60.5392   87.4845    7.9230 N.ar    1  UNL1       -0.1291
      4 C          61.4164   86.5704    8.7263 C.ar    1  UNL1        0.1660
      5 C          62.1705   85.3262    8.3612 C.ar    1  UNL1        0.0138
      6 C          62.9817   84.6092    9.3993 C.ar    1  UNL1        0.0003
      7 C          63.0388   85.1363   10.8024 C.ar    1  UNL1        0.0189
      8 C          62.2847   86.3805   11.1675 C.ar    1  UNL1        0.0826
      9 N          61.4735   87.0976   10.1294 N.ar    1  UNL1       -0.2759
     10 C          60.4066   89.1886   11.4078 C.3     1  UNL1        0.0716
     11 C          59.7363   89.7694   12.6175 C.3     1  UNL1        0.0120
     12 C          59.0463   88.7057   11.8160 C.3     1  UNL1        0.0120
     13 CL         65.5348   92.3029   11.4619 Cl      1  UNL1       -0.0822
     14 C          64.2527   91.5243   11.4484 C.ar    1  UNL1        0.0577
     15 C          63.4193   91.4734   10.2023 C.ar    1  UNL1        0.0111
     16 C          62.1373   90.6948   10.1888 C.ar    1  UNL1       -0.0030
     17 C          61.6886   89.9671   11.4214 C.ar    1  UNL1       -0.0160
     18 C          62.5221   90.0181   12.6675 C.ar    1  UNL1       -0.0030
     19 C          63.8041   90.7967   12.6810 C.ar    1  UNL1        0.0111
     20 C          62.1134   84.7991    6.9580 C.3     1  UNL1        0.0254
     21 C          62.7824   84.5329    5.6421 C.3     1  UNL1        0.0048
     22 C          61.3455   84.1524    5.8435 C.3     1  UNL1        0.0048
@<TRIPOS>BOND
     1    13    14    1
     2    14    15   ar
     3    15    16   ar
     4    16    17   ar
     5    17    10    1
     6    10     1    1
     7     1     2   ar
     8     2     3   ar
     9     3     4   ar
    10     4     5   ar
    11     5    20    1
    12    20    21    1
    13    21    22    1
    14     5     6   ar
    15     6     7   ar
    16     7     8   ar
    17     8     9   ar
    18    10    11    1
    19    11    12    1
    20    17    18   ar
    21    18    19   ar
    22    19    14   ar
    23    12    10    1
    24     9     1   ar
    25     9     4   ar
    26    22    20    1
@<TRIPOS>MOLECULE
*****
 22 26 0 0 0
SMALL
GASTEIGER

@<TRIPOS>ATOM
      1 C          62.2677   88.1830   11.4530 C.ar    1  UNL1        0.1501
      2 N          62.7278   87.7013   12.7970 N.ar    1  UNL1       -0.1327
      3 N          63.6288   88.7486   13.3813 N.ar    1  UNL1       -0.1291
      4 C          63.7255   89.8776   12.3983 C.ar    1  UNL1        0.1660
      5 C          64.4709   91.1788   12.4345 C.ar    1  UNL1        0.0138
      6 C          64.3751   92.1304   11.2790 C.ar    1  UNL1        0.0003
      7 C          63.5340   91.7808   10.0873 C.ar    1  UNL1        0.0189
      8 C          62.7885   90.4796   10.0511 C.ar    1  UNL1        0.0826
      9 N          62.8843   89.5280   11.2066 N.ar    1  UNL1       -0.2759
     10 C          61.3518   87.4487   10.5193 C.3     1  UNL1        0.0716
     11 C          60.1773   87.1644    9.6306 C.3     1  UNL1        0.0120
     12 C          60.2892   88.4895   10.3245 C.3     1  UNL1        0.0120
     13 CL         64.3290   82.2652   10.0014 Cl      1  UNL1       -0.0822
     14 C          63.5847   83.5611   10.1309 C.ar    1  UNL1        0.0577
     15 C          62.9464   83.9322   11.4366 C.ar    1  UNL1        0.0111
     16 C          62.2021   85.2280   11.5660 C.ar    1  UNL1       -0.0030
     17 C          62.0961   86.1528   10.3898 C.ar    1  UNL1       -0.0160
     18 C          62.7344   85.7818    9.0841 C.ar    1  UNL1       -0.0030
     19 C          63.4787   84.4859    8.9546 C.ar    1  UNL1        0.0111
     20 C          65.3121   91.5283   13.6263 C.3     1  UNL1        0.0254
     21 C          65.4689   91.6591   15.1123 C.3     1  UNL1        0.0048
     22 C          66.6123   92.0030   14.2044 C.3     1  UNL1        0.0048
@<TRIPOS>BOND
     1    13    14    1
     2    14    15   ar
     3    15    16   ar
     4    16    17   ar
     5    17    10    1
     6    10     1    1
     7     1     2   ar
     8     2     3   ar
     9     3     4   ar
    10     4     5   ar
    11     5    20    1
    12    20    21    1
    13    21    22    1
    14     5     6   ar
    15     6     7   ar
    16     7     8   ar
    17     8     9   ar
    18    10    11    1
    19    11    12    1
    20    17    18   ar
    21    18    19   ar
    22    19    14   ar
    23    12    10    1
    24     9     1   ar
    25     9     4   ar
    26    22    20    1
@<TRIPOS>MOLECULE
*****
 22 26 0 0 0
SMALL
GASTEIGER

@<TRIPOS>ATOM
      1 C          63.2662   85.6079   13.2529 C.ar    1  UNL1        0.1501
      2 N          62.4705   85.5878   11.9815 N.ar    1  UNL1       -0.1327
      3 N          62.3740   86.9956   11.4728 N.ar    1  UNL1       -0.1291
      4 C          63.1101   87.8858   12.4300 C.ar    1  UNL1        0.1660
      5 C          63.3495   89.3665   12.4418 C.ar    1  UNL1        0.0138
      6 C          64.1402   89.9895   13.5538 C.ar    1  UNL1        0.0003
      7 C          64.6916   89.1318   14.6539 C.ar    1  UNL1        0.0189
      8 C          64.4522   87.6511   14.6421 C.ar    1  UNL1        0.0826
      9 N          63.6614   87.0281   13.5301 N.ar    1  UNL1       -0.2759
     10 C          63.6067   84.4168   14.0987 C.3     1  UNL1        0.0716
     11 C          63.9967   83.6050   15.2983 C.3     1  UNL1        0.0120
     12 C          63.8670   85.0952   15.4111 C.3     1  UNL1        0.0120
     13 CL         63.0388   80.0486   10.0249 Cl      1  UNL1       -0.0822
     14 C          63.1808   81.1407   11.0434 C.ar    1  UNL1        0.0577
     15 C          62.3731   81.0978   12.3067 C.ar    1  UNL1        0.0111
     16 C          62.5151   82.1898   13.3250 C.ar    1  UNL1       -0.0030
     17 C          63.4648   83.3248   13.0803 C.ar    1  UNL1       -0.0160
     18 C          64.2725   83.3678   11.8170 C.ar    1  UNL1       -0.0030
     19 C          64.1305   82.2757   10.7986 C.ar    1  UNL1        0.0111
     20 C          62.7981   90.2242   11.3416 C.3     1  UNL1        0.0254
     21 C          62.9970   91.2757   10.2906 C.3     1  UNL1        0.0048
     22 C          61.6442   90.6582   10.4871 C.3     1  UNL1        0.0048
@<TRIPOS>BOND
     1    13    14    1
     2    14    15   ar
     3    15    16   ar
     4    16    17   ar
     5    17    10    1
     6    10     1    1
     7     1     2   ar
     8     2     3   ar
     9     3     4   ar
    10     4     5   ar
    11     5    20    1
    12    20    21    1
    13    21    22    1
    14     5     6   ar
    15     6     7   ar
    16     7     8   ar
    17     8     9   ar
    18    10    11    1
    19    11    12    1
    20    17    18   ar
    21    18    19   ar
    22    19    14   ar
    23    12    10    1
    24     9     1   ar
    25     9     4   ar
    26    22    20    1
@<TRIPOS>MOLECULE
*****
 22 26 0 0 0
SMALL
GASTEIGER

@<TRIPOS>ATOM
      1 C          62.7272   86.2491   12.2749 C.ar    1  UNL1        0.1501
      2 N          61.9159   85.2712   11.4778 N.ar    1  UNL1       -0.1327
      3 N          61.2177   86.0284   10.3873 N.ar    1  UNL1       -0.1291
      4 C          61.5975   87.4743   10.5106 C.ar    1  UNL1        0.1660
      5 C          61.2143   88.6843    9.7111 C.ar    1  UNL1        0.0138
      6 C          61.7640   90.0307   10.0784 C.ar    1  UNL1        0.0003
      7 C          62.6969   90.1672   11.2450 C.ar    1  UNL1        0.0189
      8 C          63.0801   88.9571   12.0444 C.ar    1  UNL1        0.0826
      9 N          62.5304   87.6107   11.6772 N.ar    1  UNL1       -0.2759
     10 C          63.5847   85.9228   13.4616 C.3     1  UNL1        0.0716
     11 C          64.5050   86.1134   14.6307 C.3     1  UNL1        0.0120
     12 C          64.0631   87.2978   13.8233 C.3     1  UNL1        0.0120
     13 CL         62.8628   79.9698   13.6638 Cl      1  UNL1       -0.0822
     14 C          63.0433   81.4581   13.6132 C.ar    1  UNL1        0.0577
     15 C          62.1979   82.3459   14.4776 C.ar    1  UNL1        0.0111
     16 C          62.3784   83.8341   14.4270 C.ar    1  UNL1       -0.0030
     17 C          63.4043   84.4346   13.5121 C.ar    1  UNL1       -0.0160
     18 C          64.2497   83.5468   12.6477 C.ar    1  UNL1       -0.0030
     19 C          64.0692   82.0585   12.6983 C.ar    1  UNL1        0.0111
     20 C          60.2813   88.5478    8.5445 C.3     1  UNL1        0.0254
     21 C          59.6258   89.1350    7.3298 C.3     1  UNL1        0.0048
     22 C          59.3209   87.7244    7.7385 C.3     1  UNL1        0.0048
@<TRIPOS>BOND
     1    13    14    1
     2    14    15   ar
     3    15    16   ar
     4    16    17   ar
     5    17    10    1
     6    10     1    1
     7     1     2   ar
     8     2     3   ar
     9     3     4   ar
    10     4     5   ar
    11     5    20    1
    12    20    21    1
    13    21    22    1
    14     5     6   ar
    15     6     7   ar
    16     7     8   ar
    17     8     9   ar
    18    10    11    1
    19    11    12    1
    20    17    18   ar
    21    18    19   ar
    22    19    14   ar
    23    12    10    1
    24     9     1   ar
    25     9     4   ar
    26    22    20    1
@<TRIPOS>MOLECULE
*****
 22 26 0 0 0
SMALL
GASTEIGER

@<TRIPOS>ATOM
      1 C          62.5734   90.0445   12.1593 C.ar    1  UNL1        0.1501
      2 N          61.7006   90.9507   11.3426 N.ar    1  UNL1       -0.1327
      3 N          60.9708   90.1095   10.3378 N.ar    1  UNL1       -0.1291
      4 C          61.3926   88.6833   10.5335 C.ar    1  UNL1        0.1660
      5 C          61.0028   87.4160    9.8320 C.ar    1  UNL1        0.0138
      6 C          61.6034   86.1087   10.2562 C.ar    1  UNL1        0.0003
      7 C          62.5938   86.0685   11.3820 C.ar    1  UNL1        0.0189
      8 C          62.9837   87.3358   12.0835 C.ar    1  UNL1        0.0826
      9 N          62.3831   88.6432   11.6592 N.ar    1  UNL1       -0.2759
     10 C          63.4778   90.4656   13.2795 C.3     1  UNL1        0.0716
     11 C          64.0591   90.5703   14.6583 C.3     1  UNL1        0.0120
     12 C          62.8616   89.7009   14.4133 C.3     1  UNL1        0.0120
     13 CL         67.1989   94.1096   10.3004 Cl      1  UNL1       -0.0822
     14 C          66.2686   93.1985   11.0452 C.ar    1  UNL1        0.0577
     15 C          65.1455   92.5179   10.3203 C.ar    1  UNL1        0.0111
     16 C          64.2153   91.6069   11.0651 C.ar    1  UNL1       -0.0030
     17 C          64.4081   91.3766   12.5348 C.ar    1  UNL1       -0.0160
     18 C          65.5311   92.0573   13.2596 C.ar    1  UNL1       -0.0030
     19 C          66.4614   92.9683   12.5148 C.ar    1  UNL1        0.0111
     20 C          60.0123   87.4562    8.7062 C.3     1  UNL1        0.0254
     21 C          59.3336   88.2073    7.5993 C.3     1  UNL1        0.0048
     22 C          58.9755   86.7748    7.8631 C.3     1  UNL1        0.0048
@<TRIPOS>BOND
     1    13    14    1
     2    14    15   ar
     3    15    16   ar
     4    16    17   ar
     5    17    10    1
     6    10     1    1
     7     1     2   ar
     8     2     3   ar
     9     3     4   ar
    10     4     5   ar
    11     5    20    1
    12    20    21    1
    13    21    22    1
    14     5     6   ar
    15     6     7   ar
    16     7     8   ar
    17     8     9   ar
    18    10    11    1
    19    11    12    1
    20    17    18   ar
    21    18    19   ar
    22    19    14   ar
    23    12    10    1
    24     9     1   ar
    25     9     4   ar
    26    22    20    1
