@<TRIPOS>MOLECULE
*****
 37 41 0 0 0
SMALL
GASTEIGER

@<TRIPOS>ATOM
      1 C          63.2487   87.0082   13.3583 C.3     1  UNL1        0.1065
      2 C          63.5097   89.5919   13.2767 C.2     1  UNL1        0.2475
      3 O          62.5073   89.7281   14.3842 O.2     1  UNL1       -0.2701
      4 N          63.8805   88.2319   12.7638 N.am    1  UNL1       -0.2999
      5 H          64.5384   88.1424   12.0369 H       1  UNL1        0.1498
      6 C          65.4051   93.2629   11.4932 C.ar    1  UNL1        0.0863
      7 C          64.4161   92.4663   10.6949 C.ar    1  UNL1        0.0308
      8 C          63.7843   91.2426   11.2894 C.ar    1  UNL1        0.0643
      9 CL         62.7953   90.4460   10.4910 Cl      1  UNL1       -0.0820
     10 C          64.1415   90.8155   12.6822 C.ar    1  UNL1        0.0745
     11 C          65.1306   91.6121   13.4806 C.ar    1  UNL1        0.0643
     12 CL         65.4878   91.1850   14.8734 Cl      1  UNL1       -0.0820
     13 C          65.7623   92.8358   12.8861 C.ar    1  UNL1        0.0308
     14 C          67.7293   96.5664    8.0923 C.3     1  UNL1        0.0756
     15 C          67.1052   96.0051    9.3354 C.ar    1  UNL1        0.1613
     16 N          66.9130   96.7343   10.6321 N.ar    1  UNL1       -0.2073
     17 C          66.2528   95.7958   11.5982 C.ar    1  UNL1        0.2013
     18 N          66.0369   94.4866   10.8987 N.ar    1  UNL1       -0.2083
     19 N          66.5637   94.6159    9.5002 N.ar    1  UNL1       -0.1487
     20 C          62.5926   85.9949   12.4679 C.3     1  UNL1        0.1537
     21 C          61.8569   86.4408   11.2391 C.2     1  UNL1        0.3564
     22 N          61.3577   85.5517   10.1390 N.2     1  UNL1       -0.0347
     23 C          60.6835   86.4155    9.1147 C.2     1  UNL1        0.2318
     24 C          60.0051   86.0901    7.8170 C.2     1  UNL1        0.0507
     25 C          59.4092   87.1877    6.9864 C.2     1  UNL1        0.0114
     26 C          59.4916   88.6108    7.4535 C.2     1  UNL1        0.0440
     27 CL         58.8957   89.7085    6.6228 Cl      1  UNL1       -0.0864
     28 C          60.1700   88.9362    8.7511 C.3     1  UNL1        0.1155
     29 C          60.7659   87.8385    9.5817 C.2     1  UNL1        0.2183
     30 N          61.4911   87.8542   10.8946 N.2     1  UNL1       -0.0385
     31 C          62.6723   84.5358   12.8062 C.ar    1  UNL1       -0.0068
     32 C          62.5895   84.0920   14.2367 C.ar    1  UNL1       -0.0035
     33 C          62.6692   82.6328   14.5751 C.ar    1  UNL1        0.0020
     34 C          62.8317   81.6175   13.4830 C.ar    1  UNL1        0.0296
     35 C          62.9145   82.0612   12.0526 C.ar    1  UNL1        0.1398
     36 F          63.0770   81.0459   10.9605 F       1  UNL1       -0.2042
     37 C          62.8348   83.5204   11.7141 C.ar    1  UNL1        0.0260
@<TRIPOS>BOND
     1    14    15    1
     2    15    16   ar
     3    16    17   ar
     4    17    18   ar
     5    18     6    1
     6     6     7   ar
     7     7     8   ar
     8     8     9    1
     9     8    10   ar
    10    10     2    1
    11     2     3    2
    12     2     4   am
    13     4     1    1
    14    20     1    1
    15    20    31    1
    16    31    32   ar
    17    32    33   ar
    18    33    34   ar
    19    34    35   ar
    20    35    36    1
    21    35    37   ar
    22    20    21    1
    23    21    22    2
    24    22    23    1
    25    23    24    2
    26    24    25    1
    27    25    26    2
    28    26    27    1
    29    26    28    1
    30    28    29    1
    31    29    30    2
    32    10    11   ar
    33    11    12    1
    34    11    13   ar
    35    18    19   ar
    36    19    15   ar
    37    13     6   ar
    38    37    31   ar
    39    30    21    1
    40    29    23    1
    41     4     5    1
@<TRIPOS>MOLECULE
*****
 37 41 0 0 0
SMALL
GASTEIGER

@<TRIPOS>ATOM
      1 C          63.1387   86.9633   13.6277 C.3     1  UNL1        0.1065
      2 C          63.4267   89.5373   13.4231 C.2     1  UNL1        0.2475
      3 O          62.4365   89.7363   14.5320 O.2     1  UNL1       -0.2701
      4 N          63.7779   88.1508   12.9709 N.am    1  UNL1       -0.2999
      5 H          64.4278   88.0202   12.2431 H       1  UNL1        0.1498
      6 C          65.3443   93.0997   11.4528 C.ar    1  UNL1        0.0863
      7 C          64.3409   92.2765   10.7008 C.ar    1  UNL1        0.0308
      8 C          63.7017   91.0890   11.3576 C.ar    1  UNL1        0.0643
      9 CL         62.6983   90.2658   10.6056 Cl      1  UNL1       -0.0820
     10 C          64.0659   90.7248   12.7664 C.ar    1  UNL1        0.0745
     11 C          65.0694   91.5480   13.5184 C.ar    1  UNL1        0.0643
     12 CL         65.4336   91.1837   14.9271 Cl      1  UNL1       -0.0820
     13 C          65.7086   92.7354   12.8616 C.ar    1  UNL1        0.0308
     14 C          67.7127   96.2008    7.8954 C.3     1  UNL1        0.0756
     15 C          67.0721   95.7126    9.1609 C.ar    1  UNL1        0.1613
     16 N          66.8621   96.5164   10.4098 N.ar    1  UNL1       -0.2073
     17 C          66.1893   95.6354   11.4203 C.ar    1  UNL1        0.2013
     18 N          65.9835   94.2872   10.7960 N.ar    1  UNL1       -0.2083
     19 N          66.5291   94.3349    9.3996 N.ar    1  UNL1       -0.1487
     20 C          63.0671   85.6528   12.9015 C.3     1  UNL1        0.1537
     21 C          62.5959   85.6089   11.4781 C.2     1  UNL1        0.3564
     22 N          61.3442   86.2395   10.9438 N.2     1  UNL1       -0.0347
     23 C          61.2685   85.9470    9.4745 C.2     1  UNL1        0.2318
     24 C          60.2580   86.3146    8.4287 C.2     1  UNL1        0.0507
     25 C          60.4525   85.8709    7.0092 C.2     1  UNL1        0.0114
     26 C          61.6575   85.0595    6.6354 C.2     1  UNL1        0.0440
     27 CL         61.8519   84.6157    5.2158 Cl      1  UNL1       -0.0864
     28 C          62.6679   84.6918    7.6812 C.3     1  UNL1        0.1155
     29 C          62.4734   85.1356    9.1008 C.2     1  UNL1        0.2183
     30 N          63.2938   84.9266   10.3390 N.2     1  UNL1       -0.0385
     31 C          63.4666   84.3863   13.5987 C.ar    1  UNL1       -0.0068
     32 C          64.2768   84.4477   14.8597 C.ar    1  UNL1       -0.0035
     33 C          64.6763   83.1811   15.5569 C.ar    1  UNL1        0.0020
     34 C          64.2656   81.8531   14.9933 C.ar    1  UNL1        0.0296
     35 C          63.4554   81.7916   13.7324 C.ar    1  UNL1        0.1398
     36 F          63.0448   80.4636   13.1688 F       1  UNL1       -0.2042
     37 C          63.0559   83.0582   13.0351 C.ar    1  UNL1        0.0260
@<TRIPOS>BOND
     1    14    15    1
     2    15    16   ar
     3    16    17   ar
     4    17    18   ar
     5    18     6    1
     6     6     7   ar
     7     7     8   ar
     8     8     9    1
     9     8    10   ar
    10    10     2    1
    11     2     3    2
    12     2     4   am
    13     4     1    1
    14    20     1    1
    15    20    31    1
    16    31    32   ar
    17    32    33   ar
    18    33    34   ar
    19    34    35   ar
    20    35    36    1
    21    35    37   ar
    22    20    21    1
    23    21    22    2
    24    22    23    1
    25    23    24    2
    26    24    25    1
    27    25    26    2
    28    26    27    1
    29    26    28    1
    30    28    29    1
    31    29    30    2
    32    10    11   ar
    33    11    12    1
    34    11    13   ar
    35    18    19   ar
    36    19    15   ar
    37    13     6   ar
    38    37    31   ar
    39    30    21    1
    40    29    23    1
    41     4     5    1
@<TRIPOS>MOLECULE
*****
 37 41 0 0 0
SMALL
GASTEIGER

@<TRIPOS>ATOM
      1 C          61.6337   88.0488   10.6319 C.3     1  UNL1        0.1065
      2 C          62.7175   89.6305   12.3851 C.2     1  UNL1        0.2475
      3 O          61.3940   89.7704   13.0770 O.2     1  UNL1       -0.2701
      4 N          62.8374   88.7696   11.1625 N.am    1  UNL1       -0.2999
      5 H          63.7060   88.6778   10.7084 H       1  UNL1        0.1498
      6 C          66.3285   91.7930   13.9771 C.ar    1  UNL1        0.0863
      7 C          65.7396   90.6485   14.7474 C.ar    1  UNL1        0.0308
      8 C          64.5360   89.9277   14.2167 C.ar    1  UNL1        0.0643
      9 CL         63.9471   88.7832   14.9871 Cl      1  UNL1       -0.0820
     10 C          63.9212   90.3513   12.9158 C.ar    1  UNL1        0.0745
     11 C          64.5100   91.4958   12.1454 C.ar    1  UNL1        0.0643
     12 CL         63.8952   91.9194   10.8444 Cl      1  UNL1       -0.0820
     13 C          65.7137   92.2167   12.6760 C.ar    1  UNL1        0.0308
     14 C          69.3859   95.2077   16.5987 C.3     1  UNL1        0.0756
     15 C          68.9375   94.0834   15.7128 C.ar    1  UNL1        0.1613
     16 N          69.8313   93.1628   14.9359 N.ar    1  UNL1       -0.2073
     17 C          68.9628   92.1928   14.1911 C.ar    1  UNL1        0.2013
     18 N          67.5321   92.5138   14.5077 N.ar    1  UNL1       -0.2083
     19 N          67.5165   93.6823   15.4481 N.ar    1  UNL1       -0.1487
     20 C          61.7255   86.5934   10.2806 C.3     1  UNL1        0.1537
     21 C          62.1952   85.6029   11.3044 C.2     1  UNL1        0.3564
     22 N          62.7356   85.9302   12.6649 N.2     1  UNL1       -0.0347
     23 C          63.0813   84.6408   13.3489 C.2     1  UNL1        0.2318
     24 C          63.6514   84.3451   14.7044 C.2     1  UNL1        0.0507
     25 C          63.8948   82.9252   15.1222 C.2     1  UNL1        0.0114
     26 C          63.5681   81.8010   14.1845 C.2     1  UNL1        0.0440
     27 CL         63.8115   80.3810   14.6024 Cl      1  UNL1       -0.0864
     28 C          62.9980   82.0967   12.8290 C.3     1  UNL1        0.1155
     29 C          62.7546   83.5166   12.4112 C.2     1  UNL1        0.2183
     30 N          62.2070   84.1112   11.1476 N.2     1  UNL1       -0.0385
     31 C          61.3476   86.1286    8.9054 C.ar    1  UNL1       -0.0068
     32 C          59.9653   86.3828    8.3813 C.ar    1  UNL1       -0.0035
     33 C          59.5874   85.9179    7.0061 C.ar    1  UNL1        0.0020
     34 C          60.5918   85.1989    6.1551 C.ar    1  UNL1        0.0296
     35 C          61.9740   84.9447    6.6792 C.ar    1  UNL1        0.1398
     36 F          62.9784   84.2256    5.8282 F       1  UNL1       -0.2042
     37 C          62.3520   85.4095    8.0544 C.ar    1  UNL1        0.0260
@<TRIPOS>BOND
     1    14    15    1
     2    15    16   ar
     3    16    17   ar
     4    17    18   ar
     5    18     6    1
     6     6     7   ar
     7     7     8   ar
     8     8     9    1
     9     8    10   ar
    10    10     2    1
    11     2     3    2
    12     2     4   am
    13     4     1    1
    14    20     1    1
    15    20    31    1
    16    31    32   ar
    17    32    33   ar
    18    33    34   ar
    19    34    35   ar
    20    35    36    1
    21    35    37   ar
    22    20    21    1
    23    21    22    2
    24    22    23    1
    25    23    24    2
    26    24    25    1
    27    25    26    2
    28    26    27    1
    29    26    28    1
    30    28    29    1
    31    29    30    2
    32    10    11   ar
    33    11    12    1
    34    11    13   ar
    35    18    19   ar
    36    19    15   ar
    37    13     6   ar
    38    37    31   ar
    39    30    21    1
    40    29    23    1
    41     4     5    1
@<TRIPOS>MOLECULE
*****
 37 41 0 0 0
SMALL
GASTEIGER

@<TRIPOS>ATOM
      1 C          60.3637   88.8063   11.6083 C.3     1  UNL1        0.1065
      2 C          62.7199   89.8986   11.6808 C.2     1  UNL1        0.2475
      3 O          62.8137   89.7954   10.1873 O.2     1  UNL1       -0.2701
      4 N          61.4948   89.4041   12.3914 N.am    1  UNL1       -0.2999
      5 H          61.4333   89.4718   13.3716 H       1  UNL1        0.1498
      6 C          66.1134   91.6920   14.0298 C.ar    1  UNL1        0.0863
      7 C          65.4068   90.4730   14.5444 C.ar    1  UNL1        0.0308
      8 C          64.2757   89.8752   13.7614 C.ar    1  UNL1        0.0643
      9 CL         63.5691   88.6562   14.2760 Cl      1  UNL1       -0.0820
     10 C          63.8510   90.4964   12.4638 C.ar    1  UNL1        0.0745
     11 C          64.5576   91.7155   11.9491 C.ar    1  UNL1        0.0643
     12 CL         64.1330   92.3366   10.6516 Cl      1  UNL1       -0.0820
     13 C          65.6888   92.3133   12.7322 C.ar    1  UNL1        0.0308
     14 C          69.4831   95.1787   16.1200 C.3     1  UNL1        0.0756
     15 C          68.7935   93.8925   15.7736 C.ar    1  UNL1        0.1613
     16 N          69.1770   92.5271   16.2619 N.ar    1  UNL1       -0.2073
     17 C          68.2197   91.5366   15.6681 C.ar    1  UNL1        0.2013
     18 N          67.2445   92.2898   14.8128 N.ar    1  UNL1       -0.2083
     19 N          67.5991   93.7458   14.8780 N.ar    1  UNL1       -0.1487
     20 C          60.6383   87.7428   10.5868 C.3     1  UNL1        0.1537
     21 C          61.4620   86.5443   10.9546 C.2     1  UNL1        0.3564
     22 N          62.2854   85.7175   10.0122 N.2     1  UNL1       -0.0347
     23 C          62.9392   84.6244   10.8045 C.2     1  UNL1        0.2318
     24 C          63.8622   83.5109   10.4069 C.2     1  UNL1        0.0507
     25 C          64.3659   82.5487   11.4415 C.2     1  UNL1        0.0114
     26 C          63.9465   82.7001   12.8738 C.2     1  UNL1        0.0440
     27 CL         64.4503   81.7378   13.9084 Cl      1  UNL1       -0.0864
     28 C          63.0235   83.8136   13.2714 C.3     1  UNL1        0.1155
     29 C          62.5199   84.7758   12.2367 C.2     1  UNL1        0.2183
     30 N          61.6069   85.9623   12.3295 N.2     1  UNL1       -0.0385
     31 C          60.0892   87.8777    9.1975 C.ar    1  UNL1       -0.0068
     32 C          59.5565   86.6722    8.4812 C.ar    1  UNL1       -0.0035
     33 C          59.0073   86.8071    7.0919 C.ar    1  UNL1        0.0020
     34 C          58.9909   88.1475    6.4188 C.ar    1  UNL1        0.0296
     35 C          59.5235   89.3530    7.1351 C.ar    1  UNL1        0.1398
     36 F          59.5071   90.6934    6.4620 F       1  UNL1       -0.2042
     37 C          60.0727   89.2181    8.5245 C.ar    1  UNL1        0.0260
@<TRIPOS>BOND
     1    14    15    1
     2    15    16   ar
     3    16    17   ar
     4    17    18   ar
     5    18     6    1
     6     6     7   ar
     7     7     8   ar
     8     8     9    1
     9     8    10   ar
    10    10     2    1
    11     2     3    2
    12     2     4   am
    13     4     1    1
    14    20     1    1
    15    20    31    1
    16    31    32   ar
    17    32    33   ar
    18    33    34   ar
    19    34    35   ar
    20    35    36    1
    21    35    37   ar
    22    20    21    1
    23    21    22    2
    24    22    23    1
    25    23    24    2
    26    24    25    1
    27    25    26    2
    28    26    27    1
    29    26    28    1
    30    28    29    1
    31    29    30    2
    32    10    11   ar
    33    11    12    1
    34    11    13   ar
    35    18    19   ar
    36    19    15   ar
    37    13     6   ar
    38    37    31   ar
    39    30    21    1
    40    29    23    1
    41     4     5    1
@<TRIPOS>MOLECULE
*****
 37 41 0 0 0
SMALL
GASTEIGER

@<TRIPOS>ATOM
      1 C          65.2411   91.5030   13.9279 C.3     1  UNL1        0.1065
      2 C          63.5003   89.7821   13.0570 C.2     1  UNL1        0.2475
      3 O          62.8551   89.7498   14.4107 O.2     1  UNL1       -0.2701
      4 N          64.6934   90.6588   12.8156 N.am    1  UNL1       -0.2999
      5 H          65.1169   90.6800   11.9271 H       1  UNL1        0.1498
      6 C          61.8571   87.2495    9.7200 C.ar    1  UNL1        0.0863
      7 C          62.4209   86.5983   10.9480 C.ar    1  UNL1        0.0308
      8 C          62.9686   87.4425   12.0604 C.ar    1  UNL1        0.0643
      9 CL         63.5324   86.7912   13.2884 Cl      1  UNL1       -0.0820
     10 C          62.9526   88.9379   11.9447 C.ar    1  UNL1        0.0745
     11 C          62.3887   89.5892   10.7167 C.ar    1  UNL1        0.0643
     12 CL         62.3727   91.0846   10.6010 Cl      1  UNL1       -0.0820
     13 C          61.8410   88.7450    9.6043 C.ar    1  UNL1        0.0308
     14 C          61.5332   83.9231    5.6321 C.3     1  UNL1        0.0756
     15 C          61.1604   84.8763    6.7287 C.ar    1  UNL1        0.1613
     16 N          59.7724   85.3360    7.0633 N.ar    1  UNL1       -0.2073
     17 C          59.8644   86.2810    8.2246 C.ar    1  UNL1        0.2013
     18 N          61.3093   86.4053    8.6077 N.ar    1  UNL1       -0.2083
     19 N          62.1103   85.5372    7.6832 N.ar    1  UNL1       -0.1487
     20 C          66.3932   92.4282   13.6698 C.3     1  UNL1        0.1537
     21 C          66.5249   93.1091   12.3398 C.2     1  UNL1        0.3564
     22 N          67.5085   92.7582   11.2631 N.2     1  UNL1       -0.0347
     23 C          67.2876   93.6928   10.1108 C.2     1  UNL1        0.2318
     24 C          67.9617   93.8182    8.7767 C.2     1  UNL1        0.0507
     25 C          67.5156   94.8722    7.8072 C.2     1  UNL1        0.0114
     26 C          66.3954   95.8007    8.1717 C.2     1  UNL1        0.0440
     27 CL         65.9493   96.8547    7.2021 Cl      1  UNL1       -0.0864
     28 C          65.7212   95.6753    9.5058 C.3     1  UNL1        0.1155
     29 C          66.1673   94.6213   10.4753 C.2     1  UNL1        0.2183
     30 N          65.6960   94.2606   11.8529 N.2     1  UNL1       -0.0385
     31 C          67.4136   92.6724   14.7417 C.ar    1  UNL1       -0.0068
     32 C          67.9869   91.5177   15.5086 C.ar    1  UNL1       -0.0035
     33 C          69.0073   91.7620   16.5806 C.ar    1  UNL1        0.0020
     34 C          69.4545   93.1609   16.8856 C.ar    1  UNL1        0.0296
     35 C          68.8813   94.3156   16.1187 C.ar    1  UNL1        0.1398
     36 F          69.3285   95.7145   16.4238 F       1  UNL1       -0.2042
     37 C          67.8608   94.0713   15.0468 C.ar    1  UNL1        0.0260
@<TRIPOS>BOND
     1    14    15    1
     2    15    16   ar
     3    16    17   ar
     4    17    18   ar
     5    18     6    1
     6     6     7   ar
     7     7     8   ar
     8     8     9    1
     9     8    10   ar
    10    10     2    1
    11     2     3    2
    12     2     4   am
    13     4     1    1
    14    20     1    1
    15    20    31    1
    16    31    32   ar
    17    32    33   ar
    18    33    34   ar
    19    34    35   ar
    20    35    36    1
    21    35    37   ar
    22    20    21    1
    23    21    22    2
    24    22    23    1
    25    23    24    2
    26    24    25    1
    27    25    26    2
    28    26    27    1
    29    26    28    1
    30    28    29    1
    31    29    30    2
    32    10    11   ar
    33    11    12    1
    34    11    13   ar
    35    18    19   ar
    36    19    15   ar
    37    13     6   ar
    38    37    31   ar
    39    30    21    1
    40    29    23    1
    41     4     5    1
@<TRIPOS>MOLECULE
*****
 37 41 0 0 0
SMALL
GASTEIGER

@<TRIPOS>ATOM
      1 C          64.2452   92.2674   10.4316 C.3     1  UNL1        0.1065
      2 C          63.0014   90.1901   11.3738 C.2     1  UNL1        0.2475
      3 O          61.7135   90.9589   11.3686 O.2     1  UNL1       -0.2701
      4 N          64.2674   90.8444   10.9053 N.am    1  UNL1       -0.2999
      5 H          65.1127   90.3398   10.9087 H       1  UNL1        0.1498
      6 C          63.0678   85.9209   12.7948 C.ar    1  UNL1        0.0863
      7 C          62.4025   86.2688   11.4963 C.ar    1  UNL1        0.0308
      8 C          62.3804   87.6919   11.0226 C.ar    1  UNL1        0.0643
      9 CL         61.7150   88.0399    9.7240 Cl      1  UNL1       -0.0820
     10 C          63.0236   88.7670   11.8475 C.ar    1  UNL1        0.0745
     11 C          63.6889   88.4191   13.1461 C.ar    1  UNL1        0.0643
     12 CL         64.3321   89.4942   13.9710 Cl      1  UNL1       -0.0820
     13 C          63.7110   86.9960   13.6198 C.ar    1  UNL1        0.0308
     14 C          62.6027   80.6627   12.9220 C.3     1  UNL1        0.0756
     15 C          62.8761   82.0808   13.3270 C.ar    1  UNL1        0.1613
     16 N          63.3718   82.5349   14.6679 N.ar    1  UNL1       -0.2073
     17 C          63.5040   84.0286   14.6318 C.ar    1  UNL1        0.2013
     18 N          63.0899   84.4978   13.2685 N.ar    1  UNL1       -0.2083
     19 N          62.7019   83.2940   12.4621 N.ar    1  UNL1       -0.1487
     20 C          65.2799   93.2369   10.9209 C.3     1  UNL1        0.1537
     21 C          65.9587   93.0078   12.2388 C.2     1  UNL1        0.3564
     22 N          65.2795   92.8825   13.5703 N.2     1  UNL1       -0.0347
     23 C          66.3368   92.6611   14.6110 C.2     1  UNL1        0.2318
     24 C          66.2582   92.4685   16.0965 C.2     1  UNL1        0.0507
     25 C          67.5123   92.2643   16.8937 C.2     1  UNL1        0.0114
     26 C          68.8450   92.2528   16.2053 C.2     1  UNL1        0.0440
     27 CL         70.0991   92.0486   17.0025 Cl      1  UNL1       -0.0864
     28 C          68.9236   92.4454   14.7199 C.3     1  UNL1        0.1155
     29 C          67.6695   92.6496   13.9227 C.2     1  UNL1        0.2183
     30 N          67.4358   92.8639   12.4566 N.2     1  UNL1       -0.0385
     31 C          65.6359   94.4355   10.0923 C.ar    1  UNL1       -0.0068
     32 C          64.7661   95.6571   10.1278 C.ar    1  UNL1       -0.0035
     33 C          65.1220   96.8556    9.2992 C.ar    1  UNL1        0.0020
     34 C          66.3479   96.8327    8.4350 C.ar    1  UNL1        0.0296
     35 C          67.2177   95.6112    8.3994 C.ar    1  UNL1        0.1398
     36 F          68.4436   95.5883    7.5353 F       1  UNL1       -0.2042
     37 C          66.8618   94.4126    9.2281 C.ar    1  UNL1        0.0260
@<TRIPOS>BOND
     1    14    15    1
     2    15    16   ar
     3    16    17   ar
     4    17    18   ar
     5    18     6    1
     6     6     7   ar
     7     7     8   ar
     8     8     9    1
     9     8    10   ar
    10    10     2    1
    11     2     3    2
    12     2     4   am
    13     4     1    1
    14    20     1    1
    15    20    31    1
    16    31    32   ar
    17    32    33   ar
    18    33    34   ar
    19    34    35   ar
    20    35    36    1
    21    35    37   ar
    22    20    21    1
    23    21    22    2
    24    22    23    1
    25    23    24    2
    26    24    25    1
    27    25    26    2
    28    26    27    1
    29    26    28    1
    30    28    29    1
    31    29    30    2
    32    10    11   ar
    33    11    12    1
    34    11    13   ar
    35    18    19   ar
    36    19    15   ar
    37    13     6   ar
    38    37    31   ar
    39    30    21    1
    40    29    23    1
    41     4     5    1
