@<TRIPOS>MOLECULE
*****
 31 35 0 0 0
SMALL
GASTEIGER

@<TRIPOS>ATOM
      1 C          64.2434   88.3451   13.4963 C.3     1  UNL1        0.0595
      2 C          63.3120   87.8780   12.4173 C.3     1  UNL1        0.0164
      3 C          62.8338   86.4564   12.4028 C.3     1  UNL1        0.0071
      4 C          63.2871   85.5018   13.4674 C.3     1  UNL1        0.0389
      5 C          64.2185   85.9689   14.5464 C.3     1  UNL1        0.0563
      6 N          64.6717   85.0143   15.6110 N.3     1  UNL1       -0.3219
      7 C          64.6966   87.3906   14.5609 C.3     1  UNL1        0.0318
      8 H          64.2527   84.0988   15.4476 H       1  UNL1        0.1188
      9 H          64.3826   85.3622   16.5252 H       1  UNL1        0.1188
     10 C          65.7676   95.9584    9.2573 C.3     1  UNL1        0.0540
     11 C          65.7981   95.1441   10.5167 C.ar    1  UNL1        0.0824
     12 C          66.2769   95.6132   11.8586 C.ar    1  UNL1        0.0552
     13 C          66.1298   94.4767   12.8265 C.ar    1  UNL1        0.1646
     14 N          66.4411   94.3573   14.2890 N.ar    1  UNL1       -0.2252
     15 C          66.1827   93.0663   15.0078 C.ar    1  UNL1        0.0988
     16 C          65.6129   91.8948   14.2641 C.ar    1  UNL1        0.0281
     17 C          65.3017   92.0143   12.8016 C.ar    1  UNL1        0.0771
     18 N          65.5601   93.3053   12.0828 N.ar    1  UNL1       -0.2154
     19 N          65.3551   93.7177   10.6553 N.ar    1  UNL1       -0.1683
     20 C          64.7508   90.6991   12.3360 C.3     1  UNL1        0.1187
     21 N          64.7216   89.7668   13.5107 N.3     1  UNL1       -0.2651
     22 C          65.2544   90.5058   14.7023 C.3     1  UNL1        0.1022
     23 C          62.8089   84.0801   13.4530 C.ar    1  UNL1        0.0086
     24 C          63.0917   83.2057   12.2674 C.ar    1  UNL1        0.0300
     25 C          62.6136   81.7841   12.2529 C.ar    1  UNL1        0.1672
     26 F          62.8963   80.9097   11.0674 F       1  UNL1       -0.2018
     27 C          61.8527   81.2368   13.4240 C.ar    1  UNL1        0.1696
     28 F          61.3746   79.8150   13.4096 F       1  UNL1       -0.2017
     29 C          61.5700   82.1111   14.6096 C.ar    1  UNL1        0.0612
     30 C          62.0481   83.5328   14.6241 C.ar    1  UNL1        0.1385
     31 F          61.7653   84.4071   15.8096 F       1  UNL1       -0.2044
@<TRIPOS>BOND
     1    10    11    1
     2    11    12   ar
     3    12    13   ar
     4    13    14   ar
     5    14    15   ar
     6    15    16   ar
     7    16    17   ar
     8    17    18   ar
     9    18    19   ar
    10    17    20    1
    11    20    21    1
    12     1    21    1
    13     1     2    1
    14     2     3    1
    15     3     4    1
    16     4    23    1
    17    23    24   ar
    18    24    25   ar
    19    25    26    1
    20    25    27   ar
    21    27    28    1
    22    27    29   ar
    23    29    30   ar
    24    30    31    1
    25     4     5    1
    26     5     6    1
    27     5     7    1
    28    21    22    1
    29    19    11   ar
    30     7     1    1
    31    18    13   ar
    32    30    23   ar
    33    22    16    1
    34     6     8    1
    35     6     9    1
@<TRIPOS>MOLECULE
*****
 31 35 0 0 0
SMALL
GASTEIGER

@<TRIPOS>ATOM
      1 C          63.4022   89.7424   11.8243 C.3     1  UNL1        0.0595
      2 C          63.8304   89.1444   13.1316 C.3     1  UNL1        0.0164
      3 C          64.8327   89.8574   13.9901 C.3     1  UNL1        0.0071
      4 C          65.4068   91.1684   13.5412 C.3     1  UNL1        0.0389
      5 C          64.9786   91.7665   12.2339 C.3     1  UNL1        0.0563
      6 N          65.5528   93.0776   11.7851 N.3     1  UNL1       -0.3219
      7 C          63.9763   91.0534   11.3755 C.3     1  UNL1        0.0318
      8 H          66.2124   93.4173   12.4850 H       1  UNL1        0.1188
      9 H          64.8004   93.7564   11.6692 H       1  UNL1        0.1188
     10 C          61.5448   83.7767    5.5621 C.3     1  UNL1        0.0540
     11 C          61.0880   84.8157    6.5428 C.ar    1  UNL1        0.0824
     12 C          59.6699   85.2456    6.7754 C.ar    1  UNL1        0.0552
     13 C          59.6746   86.3029    7.8395 C.ar    1  UNL1        0.1646
     14 N          58.5685   87.0909    8.4762 N.ar    1  UNL1       -0.2252
     15 C          58.8835   88.1025    9.5381 C.ar    1  UNL1        0.0988
     16 C          60.3045   88.3260    9.9632 C.ar    1  UNL1        0.0281
     17 C          61.4106   87.5379    9.3264 C.ar    1  UNL1        0.0771
     18 N          61.0957   86.5264    8.2645 N.ar    1  UNL1       -0.2154
     19 N          61.9692   85.6072    7.4632 N.ar    1  UNL1       -0.1683
     20 C          62.7056   87.9726    9.9460 C.3     1  UNL1        0.1187
     21 N          62.3999   89.0293   10.9658 N.3     1  UNL1       -0.2651
     22 C          60.9159   89.2477   10.9764 C.3     1  UNL1        0.1022
     23 C          66.4091   91.8815   14.3997 C.ar    1  UNL1        0.0086
     24 C          67.8274   92.0269   13.9335 C.ar    1  UNL1        0.0300
     25 C          68.8297   92.7400   14.7918 C.ar    1  UNL1        0.1672
     26 F          70.2479   92.8854   14.3256 F       1  UNL1       -0.2018
     27 C          68.4137   93.3076   16.1165 C.ar    1  UNL1        0.1696
     28 F          69.4161   94.0207   16.9750 F       1  UNL1       -0.2017
     29 C          66.9955   93.1622   16.5828 C.ar    1  UNL1        0.0612
     30 C          65.9932   92.4491   15.7244 C.ar    1  UNL1        0.1385
     31 F          64.5749   92.3037   16.1906 F       1  UNL1       -0.2044
@<TRIPOS>BOND
     1    10    11    1
     2    11    12   ar
     3    12    13   ar
     4    13    14   ar
     5    14    15   ar
     6    15    16   ar
     7    16    17   ar
     8    17    18   ar
     9    18    19   ar
    10    17    20    1
    11    20    21    1
    12     1    21    1
    13     1     2    1
    14     2     3    1
    15     3     4    1
    16     4    23    1
    17    23    24   ar
    18    24    25   ar
    19    25    26    1
    20    25    27   ar
    21    27    28    1
    22    27    29   ar
    23    29    30   ar
    24    30    31    1
    25     4     5    1
    26     5     6    1
    27     5     7    1
    28    21    22    1
    29    19    11   ar
    30     7     1    1
    31    18    13   ar
    32    30    23   ar
    33    22    16    1
    34     6     8    1
    35     6     9    1
@<TRIPOS>MOLECULE
*****
 31 35 0 0 0
SMALL
GASTEIGER

@<TRIPOS>ATOM
      1 C          63.6874   86.9445   13.3371 C.3     1  UNL1        0.0595
      2 C          62.7965   86.3480   12.2881 C.3     1  UNL1        0.0164
      3 C          62.4140   84.8996   12.3642 C.3     1  UNL1        0.0071
      4 C          62.9224   84.0477   13.4892 C.3     1  UNL1        0.0389
      5 C          63.8134   84.6442   14.5382 C.3     1  UNL1        0.0563
      6 N          64.3219   83.7923   15.6633 N.3     1  UNL1       -0.3219
      7 C          64.1959   86.0926   14.4621 C.3     1  UNL1        0.0318
      8 H          63.9658   82.8423   15.5581 H       1  UNL1        0.1188
      9 H          64.0040   84.1781   16.5524 H       1  UNL1        0.1188
     10 C          68.5188   93.7558   16.2558 C.3     1  UNL1        0.0540
     11 C          67.4824   93.2038   15.3225 C.ar    1  UNL1        0.0824
     12 C          66.7463   93.9745   14.2669 C.ar    1  UNL1        0.0552
     13 C          65.8090   93.0312   13.5730 C.ar    1  UNL1        0.1646
     14 N          64.8331   93.2300   12.4514 N.ar    1  UNL1       -0.2252
     15 C          64.0138   92.0750   11.9565 C.ar    1  UNL1        0.0988
     16 C          64.1705   90.7212   12.5831 C.ar    1  UNL1        0.0281
     17 C          65.1465   90.5224   13.7048 C.ar    1  UNL1        0.0771
     18 N          65.9657   91.6774   14.1997 N.ar    1  UNL1       -0.2154
     19 N          66.9999   91.7841   15.2809 N.ar    1  UNL1       -0.1683
     20 C          65.0843   89.0835   14.1237 C.3     1  UNL1        0.1187
     21 N          64.0699   88.3930   13.2610 N.3     1  UNL1       -0.2651
     22 C          63.5052   89.4052   12.3089 C.3     1  UNL1        0.1022
     23 C          62.5399   82.5993   13.5653 C.ar    1  UNL1        0.0086
     24 C          61.1828   82.2075   14.0698 C.ar    1  UNL1        0.0300
     25 C          60.8002   80.7591   14.1460 C.ar    1  UNL1        0.1672
     26 F          59.4431   80.3673   14.6505 F       1  UNL1       -0.2018
     27 C          61.7749   79.7025   13.7175 C.ar    1  UNL1        0.1696
     28 F          61.3924   78.2540   13.7936 F       1  UNL1       -0.2017
     29 C          63.1321   80.0943   13.2130 C.ar    1  UNL1        0.0612
     30 C          63.5146   81.5427   13.1369 C.ar    1  UNL1        0.1385
     31 F          64.8718   81.9345   12.6324 F       1  UNL1       -0.2044
@<TRIPOS>BOND
     1    10    11    1
     2    11    12   ar
     3    12    13   ar
     4    13    14   ar
     5    14    15   ar
     6    15    16   ar
     7    16    17   ar
     8    17    18   ar
     9    18    19   ar
    10    17    20    1
    11    20    21    1
    12     1    21    1
    13     1     2    1
    14     2     3    1
    15     3     4    1
    16     4    23    1
    17    23    24   ar
    18    24    25   ar
    19    25    26    1
    20    25    27   ar
    21    27    28    1
    22    27    29   ar
    23    29    30   ar
    24    30    31    1
    25     4     5    1
    26     5     6    1
    27     5     7    1
    28    21    22    1
    29    19    11   ar
    30     7     1    1
    31    18    13   ar
    32    30    23   ar
    33    22    16    1
    34     6     8    1
    35     6     9    1
@<TRIPOS>MOLECULE
*****
 31 35 0 0 0
SMALL
GASTEIGER

@<TRIPOS>ATOM
      1 C          63.8744   86.5505   13.9744 C.3     1  UNL1        0.0595
      2 C          63.1681   86.3840   12.6616 C.3     1  UNL1        0.0164
      3 C          62.9369   85.0112   12.1032 C.3     1  UNL1        0.0071
      4 C          63.4120   83.8049   12.8575 C.3     1  UNL1        0.0389
      5 C          64.1184   83.9714   14.1703 C.3     1  UNL1        0.0563
      6 N          64.5935   82.7650   14.9246 N.3     1  UNL1       -0.3219
      7 C          64.3496   85.3442   14.7287 C.3     1  UNL1        0.0318
      8 H          64.3542   81.9218   14.4029 H       1  UNL1        0.1188
      9 H          64.1442   82.7376   15.8399 H       1  UNL1        0.1188
     10 C          69.1841   93.5117   15.2406 C.3     1  UNL1        0.0540
     11 C          67.8559   92.8401   15.4271 C.ar    1  UNL1        0.0824
     12 C          66.6708   93.4141   16.1455 C.ar    1  UNL1        0.0552
     13 C          65.5621   92.4053   16.0904 C.ar    1  UNL1        0.1646
     14 N          64.1619   92.4224   16.6282 N.ar    1  UNL1       -0.2252
     15 C          63.2615   91.2420   16.4135 C.ar    1  UNL1        0.0988
     16 C          63.7614   90.0445   15.6610 C.ar    1  UNL1        0.0281
     17 C          65.1616   90.0275   15.1232 C.ar    1  UNL1        0.0771
     18 N          66.0619   91.2078   15.3379 N.ar    1  UNL1       -0.2154
     19 N          67.4796   91.4766   14.9280 N.ar    1  UNL1       -0.1683
     20 C          65.3743   88.7165   14.4260 C.3     1  UNL1        0.1187
     21 N          64.1057   87.9234   14.5328 N.3     1  UNL1       -0.2651
     22 C          63.1088   88.7442   15.2961 C.3     1  UNL1        0.1022
     23 C          63.1808   82.4320   12.2991 C.ar    1  UNL1        0.0086
     24 C          62.5824   81.3618   13.1632 C.ar    1  UNL1        0.0300
     25 C          62.3512   79.9890   12.6049 C.ar    1  UNL1        0.1672
     26 F          61.7529   78.9189   13.4690 F       1  UNL1       -0.2018
     27 C          62.7184   79.6863   11.1824 C.ar    1  UNL1        0.1696
     28 F          62.4872   78.3134   10.6239 F       1  UNL1       -0.2017
     29 C          63.3167   80.7565   10.3182 C.ar    1  UNL1        0.0612
     30 C          63.5480   82.1293   10.8766 C.ar    1  UNL1        0.1385
     31 F          64.1463   83.1995   10.0125 F       1  UNL1       -0.2044
@<TRIPOS>BOND
     1    10    11    1
     2    11    12   ar
     3    12    13   ar
     4    13    14   ar
     5    14    15   ar
     6    15    16   ar
     7    16    17   ar
     8    17    18   ar
     9    18    19   ar
    10    17    20    1
    11    20    21    1
    12     1    21    1
    13     1     2    1
    14     2     3    1
    15     3     4    1
    16     4    23    1
    17    23    24   ar
    18    24    25   ar
    19    25    26    1
    20    25    27   ar
    21    27    28    1
    22    27    29   ar
    23    29    30   ar
    24    30    31    1
    25     4     5    1
    26     5     6    1
    27     5     7    1
    28    21    22    1
    29    19    11   ar
    30     7     1    1
    31    18    13   ar
    32    30    23   ar
    33    22    16    1
    34     6     8    1
    35     6     9    1
@<TRIPOS>MOLECULE
*****
 31 35 0 0 0
SMALL
GASTEIGER

@<TRIPOS>ATOM
      1 C          63.3934   90.1903   11.6462 C.3     1  UNL1        0.0595
      2 C          63.7324   89.5109   12.9398 C.3     1  UNL1        0.0164
      3 C          64.7979   90.0799   13.8292 C.3     1  UNL1        0.0071
      4 C          65.5244   91.3283   13.4249 C.3     1  UNL1        0.0389
      5 C          65.1854   92.0078   12.1313 C.3     1  UNL1        0.0563
      6 N          65.9120   93.2563   11.7270 N.3     1  UNL1       -0.3219
      7 C          64.1200   91.4388   11.2419 C.3     1  UNL1        0.0318
      8 H          66.5966   93.4984   12.4434 H       1  UNL1        0.1188
      9 H          65.2439   94.0200   11.6232 H       1  UNL1        0.1188
     10 C          57.7965   91.0896    4.8550 C.3     1  UNL1        0.0540
     11 C          58.3748   90.2565    5.9602 C.ar    1  UNL1        0.0824
     12 C          57.9895   88.8461    6.2953 C.ar    1  UNL1        0.0552
     13 C          58.8165   88.4054    7.4666 C.ar    1  UNL1        0.1646
     14 N          58.8690   87.1149    8.2293 N.ar    1  UNL1       -0.2252
     15 C          59.8181   86.9624    9.3809 C.ar    1  UNL1        0.0988
     16 C          60.7145   88.1004    9.7697 C.ar    1  UNL1        0.0281
     17 C          60.6620   89.3910    9.0069 C.ar    1  UNL1        0.0771
     18 N          59.7129   89.5434    7.8554 N.ar    1  UNL1       -0.2154
     19 N          59.4400   90.6875    6.9244 N.ar    1  UNL1       -0.1683
     20 C          61.6591   90.3309    9.6170 C.3     1  UNL1        0.1187
     21 N          62.3279   89.6213   10.7569 N.3     1  UNL1       -0.2651
     22 C          61.7441   88.2428   10.8512 C.3     1  UNL1        0.1022
     23 C          66.5900   91.8974   14.3142 C.ar    1  UNL1        0.0086
     24 C          68.0108   91.9589   13.8374 C.ar    1  UNL1        0.0300
     25 C          69.0763   92.5280   14.7267 C.ar    1  UNL1        0.1672
     26 F          70.4972   92.5895   14.2499 F       1  UNL1       -0.2018
     27 C          68.7210   93.0354   16.0928 C.ar    1  UNL1        0.1696
     28 F          69.7865   93.6045   16.9821 F       1  UNL1       -0.2017
     29 C          67.3001   92.9738   16.5696 C.ar    1  UNL1        0.0612
     30 C          66.2346   92.4048   15.6803 C.ar    1  UNL1        0.1385
     31 F          64.8137   92.3432   16.1571 F       1  UNL1       -0.2044
@<TRIPOS>BOND
     1    10    11    1
     2    11    12   ar
     3    12    13   ar
     4    13    14   ar
     5    14    15   ar
     6    15    16   ar
     7    16    17   ar
     8    17    18   ar
     9    18    19   ar
    10    17    20    1
    11    20    21    1
    12     1    21    1
    13     1     2    1
    14     2     3    1
    15     3     4    1
    16     4    23    1
    17    23    24   ar
    18    24    25   ar
    19    25    26    1
    20    25    27   ar
    21    27    28    1
    22    27    29   ar
    23    29    30   ar
    24    30    31    1
    25     4     5    1
    26     5     6    1
    27     5     7    1
    28    21    22    1
    29    19    11   ar
    30     7     1    1
    31    18    13   ar
    32    30    23   ar
    33    22    16    1
    34     6     8    1
    35     6     9    1
@<TRIPOS>MOLECULE
*****
 31 35 0 0 0
SMALL
GASTEIGER

@<TRIPOS>ATOM
      1 C          63.2983   88.9799   12.1336 C.3     1  UNL1        0.0595
      2 C          62.9506   89.6141   10.8195 C.3     1  UNL1        0.0164
      3 C          62.4127   88.7732    9.6999 C.3     1  UNL1        0.0071
      4 C          62.2225   87.2981    9.8944 C.3     1  UNL1        0.0389
      5 C          62.5702   86.6639   11.2086 C.3     1  UNL1        0.0563
      6 N          62.3800   85.1888   11.4030 N.3     1  UNL1       -0.3219
      7 C          63.1081   87.5048   12.3282 C.3     1  UNL1        0.0318
      8 H          62.0090   84.7779   10.5463 H       1  UNL1        0.1188
      9 H          61.7249   85.0284   12.1683 H       1  UNL1        0.1188
     10 C          69.8017   93.8769   15.5948 C.3     1  UNL1        0.0540
     11 C          68.4296   93.2796   15.6978 C.ar    1  UNL1        0.0824
     12 C          67.4847   93.4352   16.8524 C.ar    1  UNL1        0.0552
     13 C          66.2326   92.6736   16.5326 C.ar    1  UNL1        0.1646
     14 N          64.9588   92.4695   17.2979 N.ar    1  UNL1       -0.2252
     15 C          63.8560   91.6391   16.7110 C.ar    1  UNL1        0.0988
     16 C          64.0271   91.0129   15.3588 C.ar    1  UNL1        0.0281
     17 C          65.3009   91.2171   14.5934 C.ar    1  UNL1        0.0771
     18 N          66.4036   92.0474   15.1803 N.ar    1  UNL1       -0.2154
     19 N          67.7614   92.4220   14.6644 N.ar    1  UNL1       -0.1683
     20 C          65.1829   90.4804   13.2921 C.3     1  UNL1        0.1187
     21 N          63.8362   89.8209   13.2533 N.3     1  UNL1       -0.2651
     22 C          63.1219   90.1500   14.5305 C.3     1  UNL1        0.1022
     23 C          61.6845   86.4572    8.7748 C.ar    1  UNL1        0.0086
     24 C          62.6181   85.6253    7.9463 C.ar    1  UNL1        0.0300
     25 C          62.0803   84.7843    6.8268 C.ar    1  UNL1        0.1672
     26 F          63.0139   83.9525    5.9983 F       1  UNL1       -0.2018
     27 C          60.6089   84.7753    6.5357 C.ar    1  UNL1        0.1696
     28 F          60.0709   83.9343    5.4161 F       1  UNL1       -0.2017
     29 C          59.6753   85.6072    7.3642 C.ar    1  UNL1        0.0612
     30 C          60.2131   86.4481    8.4837 C.ar    1  UNL1        0.1385
     31 F          59.2795   87.2800    9.3122 F       1  UNL1       -0.2044
@<TRIPOS>BOND
     1    10    11    1
     2    11    12   ar
     3    12    13   ar
     4    13    14   ar
     5    14    15   ar
     6    15    16   ar
     7    16    17   ar
     8    17    18   ar
     9    18    19   ar
    10    17    20    1
    11    20    21    1
    12     1    21    1
    13     1     2    1
    14     2     3    1
    15     3     4    1
    16     4    23    1
    17    23    24   ar
    18    24    25   ar
    19    25    26    1
    20    25    27   ar
    21    27    28    1
    22    27    29   ar
    23    29    30   ar
    24    30    31    1
    25     4     5    1
    26     5     6    1
    27     5     7    1
    28    21    22    1
    29    19    11   ar
    30     7     1    1
    31    18    13   ar
    32    30    23   ar
    33    22    16    1
    34     6     8    1
    35     6     9    1
