@<TRIPOS>MOLECULE
*****
 36 37 0 0 0
SMALL
GASTEIGER

@<TRIPOS>ATOM
      1 C          63.8644   91.3562   12.7713 C.3     1  UNL1        0.1496
      2 N          60.5766   89.5482   11.4786 N.am    1  UNL1       -0.2567
      3 C          59.7442   90.7286   11.0743 C.3     1  UNL1        0.1168
      4 C          61.9500   89.7573   12.0442 C.2     1  UNL1        0.3046
      5 O          62.7824   88.5768   12.4485 O.2     1  UNL1       -0.2526
      6 N          62.4910   91.1470   12.2057 N.am    1  UNL1       -0.2824
      7 H          61.9447   91.9218   11.9403 H       1  UNL1        0.1514
      8 C          60.0356   88.1585   11.3172 C.3     1  UNL1        0.1413
      9 C          61.4395   85.9340    8.4630 C.ar    1  UNL1        0.0875
     10 N          61.5507   86.5296    9.8352 N.ar    1  UNL1       -0.2453
     11 C          60.3357   87.3766   10.0727 C.ar    1  UNL1        0.0858
     12 C          59.4736   87.3045    8.8474 C.ar    1  UNL1        0.0530
     13 S          60.1558   86.4129    7.8525 S.2     1  UNL1       -0.0705
     14 C          62.2900   84.6549    6.3677 C.3     1  UNL1        0.0069
     15 C          62.4369   85.0199    7.8151 C.3     1  UNL1        0.0465
     16 C          63.5811   84.4710    8.6146 C.3     1  UNL1        0.0069
     17 C          64.2179   90.7856   14.1127 C.2     1  UNL1        0.2404
     18 O          65.6366   90.4039   14.4152 O.2     1  UNL1       -0.2733
     19 N          63.1526   90.5965   15.1518 N.am    1  UNL1       -0.3013
     20 H          62.2214   90.8471   14.9533 H       1  UNL1        0.1495
     21 C          63.5060   90.0259   16.4932 C.3     1  UNL1        0.1108
     22 C          63.0079   88.6663   16.8846 C.3     1  UNL1        0.1139
     23 N          63.4950   87.4501   16.1541 N.am    1  UNL1       -0.2689
     24 C          62.8539   86.1175   16.4053 C.2     1  UNL1        0.4020
     25 O          61.7257   86.0010   17.3870 O.2     1  UNL1       -0.2264
     26 H          64.2354   87.5265   15.5098 H       1  UNL1        0.1528
     27 O          63.3409   84.9012   15.6749 O.3     1  UNL1       -0.4291
     28 C          62.3566   83.9084   15.1313 C.3     1  UNL1        0.2447
     29 C          62.7157   83.0720   13.9391 C.ar    1  UNL1        0.0714
     30 C          62.9960   81.5985   13.9480 C.ar    1  UNL1        0.1053
     31 N          63.3112   81.1780   12.5431 N.ar    1  UNL1       -0.2350
     32 C          63.2256   82.3917   11.6658 C.ar    1  UNL1        0.1343
     33 S          62.8576   83.5622   12.5286 S.2     1  UNL1       -0.0652
     34 C          64.8843   92.1361   11.9957 C.3     1  UNL1        0.0270
     35 C          64.8744   92.1002   10.4962 C.3     1  UNL1        0.0022
     36 C          65.9141   92.9518   12.7196 C.3     1  UNL1        0.0022
@<TRIPOS>BOND
     1    14    15    1
     2    15    16    1
     3    15     9    1
     4     9    10   ar
     5    10    11   ar
     6    11     8    1
     7     8     2    1
     8     2     3    1
     9     2     4   am
    10     4     5    2
    11     4     6   am
    12     1     6    1
    13     1    17    1
    14    17    18    2
    15    17    19   am
    16    19    21    1
    17    21    22    1
    18    22    23    1
    19    23    24   am
    20    24    25    2
    21    24    27    1
    22    27    28    1
    23    28    29    1
    24    29    30   ar
    25    30    31   ar
    26    31    32   ar
    27    32    33   ar
    28     1    34    1
    29    34    35    1
    30    34    36    1
    31    11    12   ar
    32    12    13   ar
    33    13     9   ar
    34    33    29   ar
    35     6     7    1
    36    19    20    1
    37    23    26    1
@<TRIPOS>MOLECULE
*****
 36 37 0 0 0
SMALL
GASTEIGER

@<TRIPOS>ATOM
      1 C          65.0298   91.3895   14.3479 C.3     1  UNL1        0.1496
      2 N          62.5837   90.8041   11.2781 N.am    1  UNL1       -0.2567
      3 C          63.3495   91.4711   10.1742 C.3     1  UNL1        0.1168
      4 C          63.1438   90.7769   12.6693 C.2     1  UNL1        0.3046
      5 O          62.3779   90.1099   13.7732 O.2     1  UNL1       -0.2526
      6 N          64.4696   91.4167   12.9567 N.am    1  UNL1       -0.2824
      7 H          64.9723   91.8544   12.2321 H       1  UNL1        0.1514
      8 C          61.2577   90.1643   10.9908 C.3     1  UNL1        0.1413
      9 C          61.8282   86.6240    9.5053 C.ar    1  UNL1        0.0875
     10 N          62.3220   87.8249   10.2563 N.ar    1  UNL1       -0.2453
     11 C          61.2016   88.8196   10.3284 C.ar    1  UNL1        0.0858
     12 C          60.0153   88.2335    9.6220 C.ar    1  UNL1        0.0530
     13 S          60.4025   86.8766    9.1132 S.2     1  UNL1       -0.0705
     14 C          62.9062   85.0125    7.7759 C.3     1  UNL1        0.0069
     15 C          62.6208   85.3877    9.1999 C.3     1  UNL1        0.0465
     16 C          63.1280   84.5266   10.3185 C.3     1  UNL1        0.0069
     17 C          64.1916   90.8829   15.4840 C.2     1  UNL1        0.2404
     18 O          63.4819   91.8517   16.3828 O.2     1  UNL1       -0.2733
     19 N          64.0631   89.4073   15.7215 N.am    1  UNL1       -0.3013
     20 H          64.5289   88.7714   15.1316 H       1  UNL1        0.1495
     21 C          63.2250   88.9006   16.8576 C.3     1  UNL1        0.1108
     22 C          62.5994   87.5396   16.7793 C.3     1  UNL1        0.1139
     23 N          63.4614   86.3283   16.5799 N.am    1  UNL1       -0.2689
     24 C          63.9946   86.0036   15.2160 C.2     1  UNL1        0.4020
     25 O          63.6658   86.8901   14.0515 O.2     1  UNL1       -0.2264
     26 H          63.6772   85.7465   17.3441 H       1  UNL1        0.1528
     27 O          64.8567   84.7924   15.0164 O.3     1  UNL1       -0.4291
     28 C          64.6985   83.9542   13.7826 C.3     1  UNL1        0.2447
     29 C          63.7005   82.8346   13.7593 C.ar    1  UNL1        0.0714
     30 C          63.8196   81.5635   12.9718 C.ar    1  UNL1        0.1053
     31 N          62.6009   80.7329   13.2452 N.ar    1  UNL1       -0.2350
     32 C          61.7286   81.4906   14.2017 C.ar    1  UNL1        0.1343
     33 S          62.4082   82.7895   14.5195 S.2     1  UNL1       -0.0652
     34 C          66.4279   91.8689   14.6030 C.3     1  UNL1        0.0270
     35 C          67.4540   91.8043   13.5108 C.3     1  UNL1        0.0022
     36 C          66.8001   92.4130   15.9504 C.3     1  UNL1        0.0022
@<TRIPOS>BOND
     1    14    15    1
     2    15    16    1
     3    15     9    1
     4     9    10   ar
     5    10    11   ar
     6    11     8    1
     7     8     2    1
     8     2     3    1
     9     2     4   am
    10     4     5    2
    11     4     6   am
    12     1     6    1
    13     1    17    1
    14    17    18    2
    15    17    19   am
    16    19    21    1
    17    21    22    1
    18    22    23    1
    19    23    24   am
    20    24    25    2
    21    24    27    1
    22    27    28    1
    23    28    29    1
    24    29    30   ar
    25    30    31   ar
    26    31    32   ar
    27    32    33   ar
    28     1    34    1
    29    34    35    1
    30    34    36    1
    31    11    12   ar
    32    12    13   ar
    33    13     9   ar
    34    33    29   ar
    35     6     7    1
    36    19    20    1
    37    23    26    1
@<TRIPOS>MOLECULE
*****
 36 37 0 0 0
SMALL
GASTEIGER

@<TRIPOS>ATOM
      1 C          61.5518   86.2889    9.0264 C.3     1  UNL1        0.1496
      2 N          63.2883   83.8457   11.6274 N.am    1  UNL1       -0.2567
      3 C          64.2173   83.0868   10.7269 C.3     1  UNL1        0.1168
      4 C          62.3998   84.9131   11.0606 C.2     1  UNL1        0.3046
      5 O          61.4708   85.6719   11.9612 O.2     1  UNL1       -0.2526
      6 N          62.4403   85.2215    9.5933 N.am    1  UNL1       -0.2824
      7 H          63.0501   84.7234    9.0022 H       1  UNL1        0.1514
      8 C          63.2478   83.5372   13.0948 C.3     1  UNL1        0.1413
      9 C          63.6294   86.2348   15.8594 C.ar    1  UNL1        0.0875
     10 N          62.7827   85.2917   15.0571 N.ar    1  UNL1       -0.2453
     11 C          63.6774   84.5730   14.0911 C.ar    1  UNL1        0.0858
     12 C          65.0770   85.0719   14.2964 C.ar    1  UNL1        0.0530
     13 S          65.0473   86.0990   15.3892 S.2     1  UNL1       -0.0705
     14 C          63.1342   88.6359   16.7192 C.3     1  UNL1        0.0069
     15 C          63.1434   87.1526   16.9417 C.3     1  UNL1        0.0465
     16 C          62.6666   86.5870   18.2466 C.3     1  UNL1        0.0069
     17 C          61.4711   87.6299    9.6936 C.2     1  UNL1        0.2404
     18 O          62.6222   88.5868    9.5958 O.2     1  UNL1       -0.2733
     19 N          60.2393   88.0142   10.4585 N.am    1  UNL1       -0.3013
     20 H          59.4838   87.3862   10.5227 H       1  UNL1        0.1495
     21 C          60.1586   89.3552   11.1257 C.3     1  UNL1        0.1108
     22 C          60.7456   89.5494   12.4924 C.3     1  UNL1        0.1139
     23 N          61.9853   90.3759   12.6656 N.am    1  UNL1       -0.2689
     24 C          63.3160   89.7050   12.8368 C.2     1  UNL1        0.4020
     25 O          63.4069   88.2078   12.8348 O.2     1  UNL1       -0.2264
     26 H          61.9257   91.3586   12.6669 H       1  UNL1        0.1528
     27 O          64.5558   90.5313   13.0100 O.3     1  UNL1       -0.4291
     28 C          64.8363   91.1965   14.3248 C.3     1  UNL1        0.2447
     29 C          66.1577   91.8665   14.5596 C.ar    1  UNL1        0.0714
     30 C          67.3038   91.9187   13.5933 C.ar    1  UNL1        0.1053
     31 N          68.4194   92.6864   14.2383 N.ar    1  UNL1       -0.2350
     32 C          67.9627   93.1087   15.6032 C.ar    1  UNL1        0.1343
     33 S          66.5649   92.6020   15.8018 S.2     1  UNL1       -0.0652
     34 C          60.7442   86.0153    7.7925 C.3     1  UNL1        0.0270
     35 C          59.4264   86.7029    7.5909 C.3     1  UNL1        0.0022
     36 C          61.2542   85.0542    6.7600 C.3     1  UNL1        0.0022
@<TRIPOS>BOND
     1    14    15    1
     2    15    16    1
     3    15     9    1
     4     9    10   ar
     5    10    11   ar
     6    11     8    1
     7     8     2    1
     8     2     3    1
     9     2     4   am
    10     4     5    2
    11     4     6   am
    12     1     6    1
    13     1    17    1
    14    17    18    2
    15    17    19   am
    16    19    21    1
    17    21    22    1
    18    22    23    1
    19    23    24   am
    20    24    25    2
    21    24    27    1
    22    27    28    1
    23    28    29    1
    24    29    30   ar
    25    30    31   ar
    26    31    32   ar
    27    32    33   ar
    28     1    34    1
    29    34    35    1
    30    34    36    1
    31    11    12   ar
    32    12    13   ar
    33    13     9   ar
    34    33    29   ar
    35     6     7    1
    36    19    20    1
    37    23    26    1
@<TRIPOS>MOLECULE
*****
 36 37 0 0 0
SMALL
GASTEIGER

@<TRIPOS>ATOM
      1 C          61.4098   86.4707    9.2309 C.3     1  UNL1        0.1496
      2 N          63.1771   83.8462   11.6264 N.am    1  UNL1       -0.2567
      3 C          63.9783   83.0536   10.6366 C.3     1  UNL1        0.1168
      4 C          62.3210   84.9853   11.1579 C.2     1  UNL1        0.3046
      5 O          61.5198   85.7779   12.1478 O.2     1  UNL1       -0.2526
      6 N          62.2660   85.3317    9.6996 N.am    1  UNL1       -0.2824
      7 H          62.7918   84.8114    9.0499 H       1  UNL1        0.1514
      8 C          63.2321   83.4998   13.0849 C.3     1  UNL1        0.1413
      9 C          63.6258   86.1797   15.8649 C.ar    1  UNL1        0.0875
     10 N          62.7763   85.2386   15.0632 N.ar    1  UNL1       -0.2453
     11 C          63.6658   84.5304   14.0847 C.ar    1  UNL1        0.0858
     12 C          65.0650   85.0338   14.2817 C.ar    1  UNL1        0.0530
     13 S          65.0402   86.0531   15.3819 S.2     1  UNL1       -0.0705
     14 C          63.1706   88.5749   16.7626 C.3     1  UNL1        0.0069
     15 C          63.1451   87.0879   16.9577 C.3     1  UNL1        0.0465
     16 C          62.6390   86.5091   18.2456 C.3     1  UNL1        0.0069
     17 C          61.4797   87.7973    9.9275 C.2     1  UNL1        0.2404
     18 O          62.6006   88.7464    9.6227 O.2     1  UNL1       -0.2733
     19 N          60.4286   88.1750   10.9289 N.am    1  UNL1       -0.3013
     20 H          59.6929   87.5521   11.1289 H       1  UNL1        0.1495
     21 C          60.4984   89.5016   11.6255 C.3     1  UNL1        0.1108
     22 C          61.6524   89.8129   12.5318 C.3     1  UNL1        0.1139
     23 N          62.8768   90.4839   11.9836 N.am    1  UNL1       -0.2689
     24 C          63.7993   91.2280   12.9029 C.2     1  UNL1        0.4020
     25 O          63.4975   91.3010   14.3704 O.2     1  UNL1       -0.2264
     26 H          63.0749   90.4360   11.0204 H       1  UNL1        0.1528
     27 O          65.0238   91.8992   12.3548 O.3     1  UNL1       -0.4291
     28 C          65.0603   92.3380   10.9210 C.3     1  UNL1        0.2447
     29 C          66.2341   93.1160   10.4044 C.ar    1  UNL1        0.0714
     30 C          67.5776   92.5521   10.0477 C.ar    1  UNL1        0.1053
     31 N          68.4444   93.6821    9.5768 N.ar    1  UNL1       -0.2350
     32 C          67.6367   94.9443    9.6424 C.ar    1  UNL1        0.1343
     33 S          66.2707   94.5945   10.1539 S.2     1  UNL1       -0.0652
     34 C          60.4839   86.2832    8.0659 C.3     1  UNL1        0.0270
     35 C          59.2018   87.0585    7.9945 C.3     1  UNL1        0.0022
     36 C          60.8401   85.3204    6.9722 C.3     1  UNL1        0.0022
@<TRIPOS>BOND
     1    14    15    1
     2    15    16    1
     3    15     9    1
     4     9    10   ar
     5    10    11   ar
     6    11     8    1
     7     8     2    1
     8     2     3    1
     9     2     4   am
    10     4     5    2
    11     4     6   am
    12     1     6    1
    13     1    17    1
    14    17    18    2
    15    17    19   am
    16    19    21    1
    17    21    22    1
    18    22    23    1
    19    23    24   am
    20    24    25    2
    21    24    27    1
    22    27    28    1
    23    28    29    1
    24    29    30   ar
    25    30    31   ar
    26    31    32   ar
    27    32    33   ar
    28     1    34    1
    29    34    35    1
    30    34    36    1
    31    11    12   ar
    32    12    13   ar
    33    13     9   ar
    34    33    29   ar
    35     6     7    1
    36    19    20    1
    37    23    26    1
@<TRIPOS>MOLECULE
*****
 36 37 0 0 0
SMALL
GASTEIGER

@<TRIPOS>ATOM
      1 C          63.5828   90.6764   14.1546 C.3     1  UNL1        0.1496
      2 N          61.0122   89.3453   11.4399 N.am    1  UNL1       -0.2567
      3 C          60.0562   90.4987   11.3651 C.3     1  UNL1        0.1168
      4 C          62.1877   89.4045   12.3697 C.2     1  UNL1        0.3046
      5 O          63.1436   88.2509   12.4444 O.2     1  UNL1       -0.2526
      6 N          62.4073   90.6171   13.2247 N.am    1  UNL1       -0.2824
      7 H          61.7799   91.3742   13.1756 H       1  UNL1        0.1514
      8 C          60.7925   88.1325   10.5848 C.3     1  UNL1        0.1413
      9 C          59.4785   89.2087    7.0947 C.ar    1  UNL1        0.0875
     10 N          60.2043   89.5118    8.3720 N.ar    1  UNL1       -0.2453
     11 C          60.1823   88.2761    9.2221 C.ar    1  UNL1        0.0858
     12 C          59.4428   87.2094    8.4703 C.ar    1  UNL1        0.0530
     13 S          59.0079   87.7857    7.1555 S.2     1  UNL1       -0.0705
     14 C          57.8723   90.6032    5.6030 C.3     1  UNL1        0.0069
     15 C          59.2614   90.1613    5.9566 C.3     1  UNL1        0.0465
     16 C          60.4334   90.6719    5.1720 C.3     1  UNL1        0.0069
     17 C          63.4565   90.1594   15.5569 C.2     1  UNL1        0.2404
     18 O          63.5001   91.1124   16.7145 O.2     1  UNL1       -0.2733
     19 N          63.2865   88.6892   15.8019 N.am    1  UNL1       -0.3013
     20 H          63.2579   88.0637   15.0422 H       1  UNL1        0.1495
     21 C          63.1601   88.1722   17.2043 C.3     1  UNL1        0.1108
     22 C          62.8251   86.7300   17.4445 C.3     1  UNL1        0.1139
     23 N          63.5525   85.6556   16.6919 N.am    1  UNL1       -0.2689
     24 C          62.8021   84.7580   15.7532 C.2     1  UNL1        0.4020
     25 O          61.3243   84.9348   15.5671 O.2     1  UNL1       -0.2264
     26 H          64.5225   85.5395   16.8141 H       1  UNL1        0.1528
     27 O          63.5295   83.6835   15.0006 O.3     1  UNL1       -0.4291
     28 C          62.8453   82.9582   13.8800 C.3     1  UNL1        0.2447
     29 C          63.2047   83.2671   12.4568 C.ar    1  UNL1        0.0714
     30 C          62.5951   84.3424   11.6070 C.ar    1  UNL1        0.1053
     31 N          63.2503   84.2948   10.2585 N.ar    1  UNL1       -0.2350
     32 C          64.2649   83.1901   10.2749 C.ar    1  UNL1        0.1343
     33 S          64.2367   82.5550   11.6335 S.2     1  UNL1       -0.0652
     34 C          64.8846   91.2526   13.6821 C.3     1  UNL1        0.0270
     35 C          64.9595   91.9474   12.3549 C.3     1  UNL1        0.0022
     36 C          66.1115   91.1341   14.5369 C.3     1  UNL1        0.0022
@<TRIPOS>BOND
     1    14    15    1
     2    15    16    1
     3    15     9    1
     4     9    10   ar
     5    10    11   ar
     6    11     8    1
     7     8     2    1
     8     2     3    1
     9     2     4   am
    10     4     5    2
    11     4     6   am
    12     1     6    1
    13     1    17    1
    14    17    18    2
    15    17    19   am
    16    19    21    1
    17    21    22    1
    18    22    23    1
    19    23    24   am
    20    24    25    2
    21    24    27    1
    22    27    28    1
    23    28    29    1
    24    29    30   ar
    25    30    31   ar
    26    31    32   ar
    27    32    33   ar
    28     1    34    1
    29    34    35    1
    30    34    36    1
    31    11    12   ar
    32    12    13   ar
    33    13     9   ar
    34    33    29   ar
    35     6     7    1
    36    19    20    1
    37    23    26    1
@<TRIPOS>MOLECULE
*****
 36 37 0 0 0
SMALL
GASTEIGER

@<TRIPOS>ATOM
      1 C          63.4448   83.8823   12.8166 C.3     1  UNL1        0.1496
      2 N          62.2300   85.3703    9.3439 N.am    1  UNL1       -0.2567
      3 C          63.1097   84.6181    8.3899 C.3     1  UNL1        0.1168
      4 C          62.3417   85.1250   10.8195 C.2     1  UNL1        0.3046
      5 O          61.4619   85.8773   11.7734 O.2     1  UNL1       -0.2526
      6 N          63.3331   84.1276   11.3410 N.am    1  UNL1       -0.2824
      7 H          63.9105   83.6339   10.7149 H       1  UNL1        0.1514
      8 C          61.2386   86.3678    8.8223 C.3     1  UNL1        0.1413
      9 C          61.9641   89.8709   10.3280 C.ar    1  UNL1        0.0875
     10 N          62.4173   88.4997    9.9224 N.ar    1  UNL1       -0.2453
     11 C          61.2366   87.7709    9.3525 C.ar    1  UNL1        0.0858
     12 C          60.0537   88.6917    9.4058 C.ar    1  UNL1        0.0530
     13 S          60.5033   89.9895   10.0087 S.2     1  UNL1       -0.0705
     14 C          62.8849   91.0775   12.4366 C.3     1  UNL1        0.0069
     15 C          62.8212   90.9363   10.9447 C.3     1  UNL1        0.0465
     16 C          63.6146   91.8606   10.0693 C.3     1  UNL1        0.0069
     17 C          64.2101   84.8406   13.6803 C.2     1  UNL1        0.2404
     18 O          65.4579   84.3882   14.3792 O.2     1  UNL1       -0.2733
     19 N          63.7277   86.2514   13.8450 N.am    1  UNL1       -0.3013
     20 H          62.9088   86.5484   13.3863 H       1  UNL1        0.1495
     21 C          64.4931   87.2097   14.7086 C.3     1  UNL1        0.1108
     22 C          63.8703   88.5112   15.1189 C.3     1  UNL1        0.1139
     23 N          64.6162   89.7966   14.9155 N.am    1  UNL1       -0.2689
     24 C          64.2721   91.0019   15.7394 C.2     1  UNL1        0.4020
     25 O          63.1821   90.9217   16.7668 O.2     1  UNL1       -0.2264
     26 H          65.3316   89.8492   14.2412 H       1  UNL1        0.1528
     27 O          65.0179   92.2873   15.5361 O.3     1  UNL1       -0.4291
     28 C          66.4721   92.2609   15.1694 C.3     1  UNL1        0.2447
     29 C          66.8844   92.3489   13.7299 C.ar    1  UNL1        0.0714
     30 C          68.1205   91.7486   13.1284 C.ar    1  UNL1        0.1053
     31 N          68.1330   92.0813   11.6659 N.ar    1  UNL1       -0.2350
     32 C          66.9046   92.8872   11.3634 C.ar    1  UNL1        0.1343
     33 S          66.1329   93.0526   12.6390 S.2     1  UNL1       -0.0652
     34 C          62.7913   82.6789   13.4285 C.3     1  UNL1        0.0270
     35 C          62.6442   81.4178   12.6297 C.3     1  UNL1        0.0022
     36 C          62.2850   82.7364   14.8393 C.3     1  UNL1        0.0022
@<TRIPOS>BOND
     1    14    15    1
     2    15    16    1
     3    15     9    1
     4     9    10   ar
     5    10    11   ar
     6    11     8    1
     7     8     2    1
     8     2     3    1
     9     2     4   am
    10     4     5    2
    11     4     6   am
    12     1     6    1
    13     1    17    1
    14    17    18    2
    15    17    19   am
    16    19    21    1
    17    21    22    1
    18    22    23    1
    19    23    24   am
    20    24    25    2
    21    24    27    1
    22    27    28    1
    23    28    29    1
    24    29    30   ar
    25    30    31   ar
    26    31    32   ar
    27    32    33   ar
    28     1    34    1
    29    34    35    1
    30    34    36    1
    31    11    12   ar
    32    12    13   ar
    33    13     9   ar
    34    33    29   ar
    35     6     7    1
    36    19    20    1
    37    23    26    1
@<TRIPOS>MOLECULE
*****
 36 37 0 0 0
SMALL
GASTEIGER

@<TRIPOS>ATOM
      1 C          61.8377   87.0033   10.4373 C.3     1  UNL1        0.1496
      2 N          63.3663   90.0212   12.5123 N.am    1  UNL1       -0.2567
      3 C          63.7415   89.3269   13.7879 C.3     1  UNL1        0.1168
      4 C          62.7318   89.2467   11.3954 C.2     1  UNL1        0.3046
      5 O          62.3567   89.9410   10.1198 O.2     1  UNL1       -0.2526
      6 N          62.4723   87.7779   11.5541 N.am    1  UNL1       -0.2824
      7 H          62.7185   87.3222   12.3914 H       1  UNL1        0.1514
      8 C          63.6258   91.4900   12.3536 C.3     1  UNL1        0.1413
      9 C          66.8969   92.7956   10.7223 C.ar    1  UNL1        0.0875
     10 N          65.4585   92.3818   10.6241 N.ar    1  UNL1       -0.2453
     11 C          64.9988   91.9744   11.9925 C.ar    1  UNL1        0.0858
     12 C          66.1532   92.1364   12.9366 C.ar    1  UNL1        0.0530
     13 S          67.3262   92.6439   12.1515 S.2     1  UNL1       -0.0705
     14 C          68.7127   92.3347    8.9221 C.3     1  UNL1        0.0069
     15 C          67.7553   93.2766    9.5901 C.3     1  UNL1        0.0465
     16 C          67.6563   94.6995    9.1259 C.3     1  UNL1        0.0069
     17 C          62.6037   85.9101    9.7531 C.2     1  UNL1        0.2404
     18 O          63.0340   86.0758    8.3257 O.2     1  UNL1       -0.2733
     19 N          62.9394   84.6511   10.4963 N.am    1  UNL1       -0.3013
     20 H          62.6570   84.5423   11.4331 H       1  UNL1        0.1495
     21 C          63.7054   83.5579    9.8121 C.3     1  UNL1        0.1108
     22 C          64.5474   82.6141   10.6185 C.3     1  UNL1        0.1139
     23 N          64.5491   82.7032   12.1159 N.am    1  UNL1       -0.2689
     24 C          63.6175   81.8449   12.9192 C.2     1  UNL1        0.4020
     25 O          62.6841   80.8977   12.2253 O.2     1  UNL1       -0.2264
     26 H          65.1617   83.3249   12.5713 H       1  UNL1        0.1528
     27 O          63.6191   81.9338   14.4166 O.3     1  UNL1       -0.4291
     28 C          62.6714   82.8643   15.1138 C.3     1  UNL1        0.2447
     29 C          63.1002   84.2635   15.4428 C.ar    1  UNL1        0.0714
     30 C          62.4360   85.1811   16.4261 C.ar    1  UNL1        0.1053
     31 N          63.1938   86.4755   16.4374 N.ar    1  UNL1       -0.2350
     32 C          64.3264   86.3580   15.4609 C.ar    1  UNL1        0.1343
     33 S          64.2686   84.9909   14.8463 S.2     1  UNL1       -0.0652
     34 C          60.4373   87.3219   10.0047 C.3     1  UNL1        0.0270
     35 C          59.9131   86.7850    8.7059 C.3     1  UNL1        0.0022
     36 C          59.5610   88.1774   10.8708 C.3     1  UNL1        0.0022
@<TRIPOS>BOND
     1    14    15    1
     2    15    16    1
     3    15     9    1
     4     9    10   ar
     5    10    11   ar
     6    11     8    1
     7     8     2    1
     8     2     3    1
     9     2     4   am
    10     4     5    2
    11     4     6   am
    12     1     6    1
    13     1    17    1
    14    17    18    2
    15    17    19   am
    16    19    21    1
    17    21    22    1
    18    22    23    1
    19    23    24   am
    20    24    25    2
    21    24    27    1
    22    27    28    1
    23    28    29    1
    24    29    30   ar
    25    30    31   ar
    26    31    32   ar
    27    32    33   ar
    28     1    34    1
    29    34    35    1
    30    34    36    1
    31    11    12   ar
    32    12    13   ar
    33    13     9   ar
    34    33    29   ar
    35     6     7    1
    36    19    20    1
    37    23    26    1
@<TRIPOS>MOLECULE
*****
 36 37 0 0 0
SMALL
GASTEIGER

@<TRIPOS>ATOM
      1 C          64.0554   88.9907   14.5322 C.3     1  UNL1        0.1496
      2 N          66.4314   92.1658   14.3804 N.am    1  UNL1       -0.2567
      3 C          67.7382   91.5624   14.8021 C.3     1  UNL1        0.1168
      4 C          65.2038   91.3086   14.2904 C.2     1  UNL1        0.3046
      5 O          63.8969   91.9122   13.8686 O.2     1  UNL1       -0.2526
      6 N          65.2830   89.8480   14.6221 N.am    1  UNL1       -0.2824
      7 H          66.1408   89.4520   14.8989 H       1  UNL1        0.1514
      8 C          66.3522   93.6266   14.0486 C.3     1  UNL1        0.1413
      9 C          67.2176   94.1457   10.3006 C.ar    1  UNL1        0.0875
     10 N          67.2265   93.3054   11.5431 N.ar    1  UNL1       -0.2453
     11 C          66.5608   94.0874   12.6365 C.ar    1  UNL1        0.0858
     12 C          66.1404   95.4110   12.0697 C.ar    1  UNL1        0.0530
     13 S          66.5463   95.4470   10.6261 S.2     1  UNL1       -0.0705
     14 C          68.5551   92.4765    8.8259 C.3     1  UNL1        0.0069
     15 C          67.7810   93.7536    8.9669 C.3     1  UNL1        0.0465
     16 C          67.5702   94.6384    7.7742 C.3     1  UNL1        0.0069
     17 C          63.2123   89.0160   13.2918 C.2     1  UNL1        0.2404
     18 O          63.4584   88.0202   12.1972 O.2     1  UNL1       -0.2733
     19 N          62.1232   90.0371   13.1458 N.am    1  UNL1       -0.3013
     20 H          61.9617   90.6907   13.8642 H       1  UNL1        0.1495
     21 C          61.2801   90.0624   11.9054 C.3     1  UNL1        0.1108
     22 C          60.1763   89.0624   11.7284 C.3     1  UNL1        0.1139
     23 N          60.5021   87.6086   11.5544 N.am    1  UNL1       -0.2689
     24 C          60.8648   87.0783   10.1990 C.2     1  UNL1        0.4020
     25 O          60.9016   88.0018    9.0175 O.2     1  UNL1       -0.2264
     26 H          60.4780   87.0025   12.3299 H       1  UNL1        0.1528
     27 O          61.1907   85.6245   10.0249 O.3     1  UNL1       -0.4291
     28 C          62.6212   85.1734   10.0063 C.3     1  UNL1        0.2447
     29 C          63.1268   84.2391   11.0653 C.ar    1  UNL1        0.0714
     30 C          62.8221   84.3209   12.5317 C.ar    1  UNL1        0.1053
     31 N          63.5329   83.1914   13.2166 N.ar    1  UNL1       -0.2350
     32 C          64.2768   82.4115   12.1733 C.ar    1  UNL1        0.1343
     33 S          64.0258   83.0590   10.8438 S.2     1  UNL1       -0.0652
     34 C          63.6709   88.1082   15.6824 C.3     1  UNL1        0.0270
     35 C          63.0757   88.7081   16.9217 C.3     1  UNL1        0.0022
     36 C          63.8816   86.6258   15.5935 C.3     1  UNL1        0.0022
@<TRIPOS>BOND
     1    14    15    1
     2    15    16    1
     3    15     9    1
     4     9    10   ar
     5    10    11   ar
     6    11     8    1
     7     8     2    1
     8     2     3    1
     9     2     4   am
    10     4     5    2
    11     4     6   am
    12     1     6    1
    13     1    17    1
    14    17    18    2
    15    17    19   am
    16    19    21    1
    17    21    22    1
    18    22    23    1
    19    23    24   am
    20    24    25    2
    21    24    27    1
    22    27    28    1
    23    28    29    1
    24    29    30   ar
    25    30    31   ar
    26    31    32   ar
    27    32    33   ar
    28     1    34    1
    29    34    35    1
    30    34    36    1
    31    11    12   ar
    32    12    13   ar
    33    13     9   ar
    34    33    29   ar
    35     6     7    1
    36    19    20    1
    37    23    26    1
@<TRIPOS>MOLECULE
*****
 36 37 0 0 0
SMALL
GASTEIGER

@<TRIPOS>ATOM
      1 C          63.3236   83.3136   12.7892 C.3     1  UNL1        0.1496
      2 N          62.6115   85.3063    9.4318 N.am    1  UNL1       -0.2567
      3 C          63.5372   84.6038    8.4835 C.3     1  UNL1        0.1168
      4 C          62.5403   84.8763   10.8671 C.2     1  UNL1        0.3046
      5 O          61.6146   85.5788   11.8154 O.2     1  UNL1       -0.2526
      6 N          63.3947   83.7437   11.3540 N.am    1  UNL1       -0.2824
      7 H          64.0023   83.2826   10.7315 H       1  UNL1        0.1514
      8 C          61.7570   86.4389    8.9449 C.3     1  UNL1        0.1413
      9 C          60.2420   89.1525   11.2700 C.ar    1  UNL1        0.0875
     10 N          60.0934   87.9329   10.4096 N.ar    1  UNL1       -0.2453
     11 C          61.4445   87.5883    9.8566 C.ar    1  UNL1        0.0858
     12 C          62.4281   88.5950   10.3753 C.ar    1  UNL1        0.0530
     13 S          61.6849   89.5617   11.2488 S.2     1  UNL1       -0.0705
     14 C          58.4210   89.1242   13.1230 C.3     1  UNL1        0.0069
     15 C          59.1409   89.8419   12.0200 C.3     1  UNL1        0.0465
     16 C          58.7598   91.2491   11.6671 C.3     1  UNL1        0.0069
     17 C          63.9625   84.1525   13.8560 C.2     1  UNL1        0.2404
     18 O          64.7669   83.5006   14.9414 O.2     1  UNL1       -0.2733
     19 N          63.7972   85.6433   13.8374 N.am    1  UNL1       -0.3013
     20 H          63.2692   86.0711   13.1251 H       1  UNL1        0.1495
     21 C          64.4361   86.4821   14.9042 C.3     1  UNL1        0.1108
     22 C          63.8492   87.8154   15.2618 C.3     1  UNL1        0.1139
     23 N          64.0356   88.9873   14.3443 N.am    1  UNL1       -0.2689
     24 C          63.7346   90.3745   14.8290 C.2     1  UNL1        0.4020
     25 O          63.2472   90.5899   16.2312 O.2     1  UNL1       -0.2264
     26 H          64.3554   88.8460   13.4240 H       1  UNL1        0.1528
     27 O          63.9209   91.5466   13.9115 O.3     1  UNL1       -0.4291
     28 C          65.2019   91.7048   13.1474 C.3     1  UNL1        0.2447
     29 C          66.4332   92.2046   13.8431 C.ar    1  UNL1        0.0714
     30 C          67.8483   91.8490   13.4950 C.ar    1  UNL1        0.1053
     31 N          68.7554   92.5724   14.4458 N.ar    1  UNL1       -0.2350
     32 C          67.9009   93.3751   15.3815 C.ar    1  UNL1        0.1343
     33 S          66.4657   93.1478   15.0090 S.2     1  UNL1       -0.0652
     34 C          62.6135   82.0448   13.1577 C.3     1  UNL1        0.0270
     35 C          61.7147   82.0098   14.3581 C.3     1  UNL1        0.0022
     36 C          62.8022   80.8110   12.3259 C.3     1  UNL1        0.0022
@<TRIPOS>BOND
     1    14    15    1
     2    15    16    1
     3    15     9    1
     4     9    10   ar
     5    10    11   ar
     6    11     8    1
     7     8     2    1
     8     2     3    1
     9     2     4   am
    10     4     5    2
    11     4     6   am
    12     1     6    1
    13     1    17    1
    14    17    18    2
    15    17    19   am
    16    19    21    1
    17    21    22    1
    18    22    23    1
    19    23    24   am
    20    24    25    2
    21    24    27    1
    22    27    28    1
    23    28    29    1
    24    29    30   ar
    25    30    31   ar
    26    31    32   ar
    27    32    33   ar
    28     1    34    1
    29    34    35    1
    30    34    36    1
    31    11    12   ar
    32    12    13   ar
    33    13     9   ar
    34    33    29   ar
    35     6     7    1
    36    19    20    1
    37    23    26    1
