@<TRIPOS>MOLECULE
*****
 41 45 0 0 0
SMALL
GASTEIGER

@<TRIPOS>ATOM
      1 C          62.4596   85.9157   11.5786 C.ar    1  UNL1        0.0383
      2 C          63.1579   86.6596   12.6781 C.ar    1  UNL1        0.0433
      3 N          62.9529   88.1275   12.4475 N.ar    1  UNL1       -0.3260
      4 C          62.1279   88.2908   11.2054 C.ar    1  UNL1        0.0606
      5 C          61.6148   89.5076   10.4940 C.ar    1  UNL1        0.0203
      6 C          60.7969   89.3574    9.2457 C.ar    1  UNL1        0.0384
      7 C          60.4921   87.9904    8.7087 C.ar    1  UNL1        0.1392
      8 C          61.0051   86.7736    9.4201 C.ar    1  UNL1        0.0389
      9 C          61.8230   86.9238   10.6684 C.ar    1  UNL1        0.0256
     10 S          62.4071   84.4252   11.4176 S.3     1  UNL1       -0.1142
     11 C          63.7391   82.9953   12.2429 C.3     1  UNL1        0.0112
     12 C          63.6096   83.6823   10.9157 C.3     1  UNL1        0.0434
     13 C          63.4802   84.3692    9.5885 C.3     1  UNL1        0.0112
     14 C          64.8121   82.9393   10.4139 C.3     1  UNL1        0.0112
     15 C          63.9264   86.0437   13.8096 C.3     1  UNL1        0.0495
     16 C          63.4456   86.2098   15.2207 C.3     1  UNL1        0.0376
     17 C          62.6176   84.9665   15.0849 C.3     1  UNL1        0.0059
     18 C          64.2736   87.4531   15.3566 C.3     1  UNL1        0.0059
     19 C          62.9648   86.3757   16.6319 C.2     1  UNL1        0.0500
     20 O          63.1105   87.6990   17.3231 O.co2   1  UNL1       -0.5492
     21 O          62.3383   85.2185   17.3518 O.co2   1  UNL1       -0.5492
     22 C          63.4803   89.2373   13.3078 C.3     1  UNL1        0.1324
     23 C          64.1486   90.4227   12.6766 C.ar    1  UNL1        0.0004
     24 C          63.7542   90.8596   11.2969 C.ar    1  UNL1       -0.0023
     25 C          64.4224   92.0449   10.6658 C.ar    1  UNL1        0.0017
     26 C          65.4852   92.7933   11.4143 C.ar    1  UNL1        0.0238
     27 C          65.8797   92.3564   12.7940 C.ar    1  UNL1        0.0017
     28 C          65.2114   91.1711   13.4252 C.ar    1  UNL1       -0.0023
     29 C          66.1536   93.9786   10.7832 C.ar    1  UNL1        0.1108
     30 N          65.9909   95.4095   11.2028 N.ar    1  UNL1       -0.2368
     31 C          66.8387   96.2564   10.3006 C.ar    1  UNL1        0.1064
     32 C          67.5254   95.3489    9.3234 C.ar    1  UNL1        0.0575
     33 S          67.1020   93.9412    9.6216 S.2     1  UNL1       -0.0659
     34 O          59.6742   87.8402    7.4602 O.3     1  UNL1       -0.4690
     35 C          58.5709   88.8126    7.1649 C.3     1  UNL1        0.2508
     36 C          58.7996   89.9348    6.1961 C.ar    1  UNL1        0.1026
     37 C          60.1914   90.2619    5.7423 C.ar    1  UNL1        0.0185
     38 C          60.4200   91.3840    4.7735 C.ar    1  UNL1        0.0029
     39 C          59.2569   92.1789    4.2584 C.ar    1  UNL1        0.0207
     40 C          57.8651   91.8518    4.7122 C.ar    1  UNL1        0.0986
     41 N          57.6365   90.7297    5.6810 N.ar    1  UNL1       -0.2445
@<TRIPOS>UNITY_ATOM_ATTR
20 1
charge -1
@<TRIPOS>BOND
     1    11    12    1
     2    12    13    1
     3    12    14    1
     4    12    10    1
     5    10     1    1
     6     1     2   ar
     7     2    15    1
     8    15    16    1
     9    16    17    1
    10    16    18    1
    11    16    19    1
    12    19    20   ar
    13    19    21   ar
    14     2     3   ar
    15     3    22    1
    16    22    23    1
    17    23    24   ar
    18    24    25   ar
    19    25    26   ar
    20    26    29    1
    21    29    30   ar
    22    30    31   ar
    23    31    32   ar
    24    32    33   ar
    25    26    27   ar
    26    27    28   ar
    27     3     4   ar
    28     4     5   ar
    29     5     6   ar
    30     6     7   ar
    31     7    34    1
    32    34    35    1
    33    35    36    1
    34    36    37   ar
    35    37    38   ar
    36    38    39   ar
    37    39    40   ar
    38    40    41   ar
    39     7     8   ar
    40     8     9   ar
    41     9     1   ar
    42    28    23   ar
    43     9     4   ar
    44    33    29   ar
    45    41    36   ar
@<TRIPOS>MOLECULE
*****
 41 45 0 0 0
SMALL
GASTEIGER

@<TRIPOS>ATOM
      1 C          62.4033   86.9724   11.8261 C.ar    1  UNL1        0.0383
      2 C          62.5703   88.4427   12.0714 C.ar    1  UNL1        0.0433
      3 N          63.4925   88.6155   13.2418 N.ar    1  UNL1       -0.3260
      4 C          63.8954   87.2520   13.7197 C.ar    1  UNL1        0.0606
      5 C          64.7883   86.8039   14.8386 C.ar    1  UNL1        0.0203
      6 C          65.0080   85.3403   15.0825 C.ar    1  UNL1        0.0384
      7 C          64.3348   84.3248   14.2076 C.ar    1  UNL1        0.1392
      8 C          63.4420   84.7729   13.0887 C.ar    1  UNL1        0.0389
      9 C          63.2223   86.2365   12.8448 C.ar    1  UNL1        0.0256
     10 S          61.5646   86.3476   10.7508 S.3     1  UNL1       -0.1142
     11 C          61.4350   87.0920    8.7686 C.3     1  UNL1        0.0112
     12 C          62.1845   85.9773    9.4361 C.3     1  UNL1        0.0434
     13 C          62.9342   84.8626   10.1036 C.3     1  UNL1        0.0112
     14 C          62.8046   85.6069    8.1214 C.3     1  UNL1        0.0112
     15 C          61.9279   89.5465   11.2846 C.3     1  UNL1        0.0495
     16 C          60.4915   89.9033   11.5281 C.3     1  UNL1        0.0376
     17 C          60.6969   89.7237   13.0030 C.3     1  UNL1        0.0059
     18 C          60.2861   90.0829   10.0531 C.3     1  UNL1        0.0059
     19 C          59.0550   90.2602   11.7716 C.2     1  UNL1        0.0500
     20 O          58.5627   91.6427   11.4612 O.co2   1  UNL1       -0.5492
     21 O          58.1110   89.2346   12.3255 O.co2   1  UNL1       -0.5492
     22 C          63.9342   89.9224   13.8308 C.3     1  UNL1        0.1324
     23 C          64.5842   90.9562   12.9596 C.ar    1  UNL1        0.0004
     24 C          64.0020   91.2774   11.6150 C.ar    1  UNL1       -0.0023
     25 C          64.6518   92.3112   10.7439 C.ar    1  UNL1        0.0017
     26 C          65.8839   93.0237   11.2173 C.ar    1  UNL1        0.0238
     27 C          66.4661   92.7026   12.5619 C.ar    1  UNL1        0.0017
     28 C          65.8163   91.6688   13.4331 C.ar    1  UNL1       -0.0023
     29 C          66.5339   94.0575   10.3462 C.ar    1  UNL1        0.1108
     30 N          67.3255   93.7895    9.1006 N.ar    1  UNL1       -0.2368
     31 C          67.7872   95.1072    8.5523 C.ar    1  UNL1        0.1064
     32 C          67.2809   96.1896    9.4590 C.ar    1  UNL1        0.0575
     33 S          66.5063   95.5409   10.5677 S.2     1  UNL1       -0.0659
     34 O          64.5546   82.8611   14.4515 O.3     1  UNL1       -0.4690
     35 C          63.4436   81.8843   14.2034 C.3     1  UNL1        0.2508
     36 C          63.2952   81.2438   12.8552 C.ar    1  UNL1        0.1026
     37 C          63.7444   81.9740   11.6244 C.ar    1  UNL1        0.0185
     38 C          63.5960   81.3335   10.2762 C.ar    1  UNL1        0.0029
     39 C          62.9984   79.9627   10.1588 C.ar    1  UNL1        0.0207
     40 C          62.5492   79.2324   11.3896 C.ar    1  UNL1        0.0986
     41 N          62.6976   79.8730   12.7378 N.ar    1  UNL1       -0.2445
@<TRIPOS>UNITY_ATOM_ATTR
20 1
charge -1
@<TRIPOS>BOND
     1    11    12    1
     2    12    13    1
     3    12    14    1
     4    12    10    1
     5    10     1    1
     6     1     2   ar
     7     2    15    1
     8    15    16    1
     9    16    17    1
    10    16    18    1
    11    16    19    1
    12    19    20   ar
    13    19    21   ar
    14     2     3   ar
    15     3    22    1
    16    22    23    1
    17    23    24   ar
    18    24    25   ar
    19    25    26   ar
    20    26    29    1
    21    29    30   ar
    22    30    31   ar
    23    31    32   ar
    24    32    33   ar
    25    26    27   ar
    26    27    28   ar
    27     3     4   ar
    28     4     5   ar
    29     5     6   ar
    30     6     7   ar
    31     7    34    1
    32    34    35    1
    33    35    36    1
    34    36    37   ar
    35    37    38   ar
    36    38    39   ar
    37    39    40   ar
    38    40    41   ar
    39     7     8   ar
    40     8     9   ar
    41     9     1   ar
    42    28    23   ar
    43     9     4   ar
    44    33    29   ar
    45    41    36   ar
@<TRIPOS>MOLECULE
*****
 41 45 0 0 0
SMALL
GASTEIGER

@<TRIPOS>ATOM
      1 C          63.5521   87.0563   13.3998 C.ar    1  UNL1        0.0383
      2 C          62.6891   86.1371   12.5873 C.ar    1  UNL1        0.0433
      3 N          62.1171   86.9260   11.4469 N.ar    1  UNL1       -0.3260
      4 C          62.6266   88.3327   11.5546 C.ar    1  UNL1        0.0606
      5 C          62.3975   89.5506   10.7096 C.ar    1  UNL1        0.0203
      6 C          63.0553   90.8491   11.0716 C.ar    1  UNL1        0.0384
      7 C          63.9422   90.9297   12.2786 C.ar    1  UNL1        0.1392
      8 C          64.1713   89.7117   13.1237 C.ar    1  UNL1        0.0389
      9 C          63.5135   88.4132   12.7617 C.ar    1  UNL1        0.0256
     10 S          64.3192   86.6840   14.6340 S.3     1  UNL1       -0.1142
     11 C          63.5417   88.1768   15.9250 C.3     1  UNL1        0.0112
     12 C          63.6359   86.6804   15.9692 C.3     1  UNL1        0.0434
     13 C          63.7301   85.1840   16.0134 C.3     1  UNL1        0.0112
     14 C          62.9526   86.6768   17.3045 C.3     1  UNL1        0.0112
     15 C          62.4416   84.6842   12.8662 C.3     1  UNL1        0.0495
     16 C          63.3811   83.6464   12.3274 C.3     1  UNL1        0.0376
     17 C          63.4890   83.0352   13.6929 C.3     1  UNL1        0.0059
     18 C          63.2731   84.2576   10.9619 C.3     1  UNL1        0.0059
     19 C          64.3206   82.6086   11.7887 C.2     1  UNL1        0.0500
     20 O          64.8619   82.7377   10.3957 O.co2   1  UNL1       -0.5492
     21 O          64.7189   81.4417   12.6429 O.co2   1  UNL1       -0.5492
     22 C          61.1971   86.4004   10.3851 C.3     1  UNL1        0.1324
     23 C          60.6339   87.3315    9.3526 C.ar    1  UNL1        0.0004
     24 C          60.4266   86.8543    7.9457 C.ar    1  UNL1       -0.0023
     25 C          59.8634   87.7853    6.9133 C.ar    1  UNL1        0.0017
     26 C          59.5076   89.1936    7.2877 C.ar    1  UNL1        0.0238
     27 C          59.7150   89.6708    8.6946 C.ar    1  UNL1        0.0017
     28 C          60.2781   88.7398    9.7270 C.ar    1  UNL1       -0.0023
     29 C          58.9445   90.1247    6.2552 C.ar    1  UNL1        0.1108
     30 N          57.4895   90.3988    6.0151 N.ar    1  UNL1       -0.2368
     31 C          57.3833   91.3887    4.8931 C.ar    1  UNL1        0.1064
     32 C          58.7727   91.7263    4.4398 C.ar    1  UNL1        0.0575
     33 S          59.7376   90.9452    5.2816 S.2     1  UNL1       -0.0659
     34 O          64.6001   92.2283   12.6406 O.3     1  UNL1       -0.4690
     35 C          66.0914   92.3633   12.5539 C.3     1  UNL1        0.2508
     36 C          66.7150   93.0514   11.3758 C.ar    1  UNL1        0.1026
     37 C          67.5358   92.2659   10.3965 C.ar    1  UNL1        0.0185
     38 C          68.1593   92.9540    9.2185 C.ar    1  UNL1        0.0029
     39 C          67.9619   94.4276    9.0198 C.ar    1  UNL1        0.0207
     40 C          67.1411   95.2131    9.9992 C.ar    1  UNL1        0.0986
     41 N          66.5176   94.5250   11.1772 N.ar    1  UNL1       -0.2445
@<TRIPOS>UNITY_ATOM_ATTR
20 1
charge -1
@<TRIPOS>BOND
     1    11    12    1
     2    12    13    1
     3    12    14    1
     4    12    10    1
     5    10     1    1
     6     1     2   ar
     7     2    15    1
     8    15    16    1
     9    16    17    1
    10    16    18    1
    11    16    19    1
    12    19    20   ar
    13    19    21   ar
    14     2     3   ar
    15     3    22    1
    16    22    23    1
    17    23    24   ar
    18    24    25   ar
    19    25    26   ar
    20    26    29    1
    21    29    30   ar
    22    30    31   ar
    23    31    32   ar
    24    32    33   ar
    25    26    27   ar
    26    27    28   ar
    27     3     4   ar
    28     4     5   ar
    29     5     6   ar
    30     6     7   ar
    31     7    34    1
    32    34    35    1
    33    35    36    1
    34    36    37   ar
    35    37    38   ar
    36    38    39   ar
    37    39    40   ar
    38    40    41   ar
    39     7     8   ar
    40     8     9   ar
    41     9     1   ar
    42    28    23   ar
    43     9     4   ar
    44    33    29   ar
    45    41    36   ar
@<TRIPOS>MOLECULE
*****
 41 45 0 0 0
SMALL
GASTEIGER

@<TRIPOS>ATOM
      1 C          63.5425   87.1963   13.3673 C.ar    1  UNL1        0.0383
      2 C          62.6948   86.2549   12.5641 C.ar    1  UNL1        0.0433
      3 N          62.1322   87.0159   11.4004 N.ar    1  UNL1       -0.3260
      4 C          62.6320   88.4277   11.4844 C.ar    1  UNL1        0.0606
      5 C          62.4061   89.6261   10.6111 C.ar    1  UNL1        0.0203
      6 C          63.0519   90.9359   10.9533 C.ar    1  UNL1        0.0384
      7 C          63.9235   91.0474   12.1690 C.ar    1  UNL1        0.1392
      8 C          64.1494   89.8491   13.0424 C.ar    1  UNL1        0.0389
      9 C          63.5037   88.5392   12.7001 C.ar    1  UNL1        0.0256
     10 S          64.2966   86.8549   14.6183 S.3     1  UNL1       -0.1142
     11 C          63.6614   85.4233   16.0490 C.3     1  UNL1        0.0112
     12 C          63.6089   86.9191   15.9497 C.3     1  UNL1        0.0434
     13 C          63.5564   88.4149   15.8505 C.3     1  UNL1        0.0112
     14 C          62.9212   86.9833   17.2812 C.3     1  UNL1        0.0112
     15 C          62.4525   84.8067   12.8708 C.3     1  UNL1        0.0495
     16 C          63.3859   83.7607   12.3375 C.3     1  UNL1        0.0376
     17 C          63.5642   83.2136   13.7227 C.3     1  UNL1        0.0059
     18 C          63.2077   84.3078   10.9523 C.3     1  UNL1        0.0059
     19 C          64.3195   82.7146   11.8043 C.2     1  UNL1        0.0500
     20 O          64.8611   82.8330   10.4105 O.co2   1  UNL1       -0.5492
     21 O          64.7114   81.5503   12.6648 O.co2   1  UNL1       -0.5492
     22 C          61.2283   86.4624   10.3390 C.3     1  UNL1        0.1324
     23 C          60.6230   87.3784    9.3168 C.ar    1  UNL1        0.0004
     24 C          60.3178   86.8681    7.9397 C.ar    1  UNL1       -0.0023
     25 C          59.7126   87.7840    6.9175 C.ar    1  UNL1        0.0017
     26 C          59.4125   89.2102    7.2726 C.ar    1  UNL1        0.0238
     27 C          59.7176   89.7204    8.6497 C.ar    1  UNL1        0.0017
     28 C          60.3229   88.8045    9.6719 C.ar    1  UNL1       -0.0023
     29 C          58.8072   90.1261    6.2505 C.ar    1  UNL1        0.1108
     30 N          57.3414   90.3203    5.9986 N.ar    1  UNL1       -0.2368
     31 C          57.1898   91.3229    4.8932 C.ar    1  UNL1        0.1064
     32 C          58.5620   91.7484    4.4619 C.ar    1  UNL1        0.0575
     33 S          59.5616   91.0087    5.3007 S.2     1  UNL1       -0.0659
     34 O          64.5693   92.3574   12.5112 O.3     1  UNL1       -0.4690
     35 C          66.0609   92.4990   12.4421 C.3     1  UNL1        0.2508
     36 C          66.8708   92.5295   13.7044 C.ar    1  UNL1        0.1026
     37 C          66.1872   92.6857   15.0304 C.ar    1  UNL1        0.0185
     38 C          66.9971   92.7163   16.2926 C.ar    1  UNL1        0.0029
     39 C          68.4904   92.5906   16.2288 C.ar    1  UNL1        0.0207
     40 C          69.1740   92.4344   14.9028 C.ar    1  UNL1        0.0986
     41 N          68.3641   92.4038   13.6406 N.ar    1  UNL1       -0.2445
@<TRIPOS>UNITY_ATOM_ATTR
20 1
charge -1
@<TRIPOS>BOND
     1    11    12    1
     2    12    13    1
     3    12    14    1
     4    12    10    1
     5    10     1    1
     6     1     2   ar
     7     2    15    1
     8    15    16    1
     9    16    17    1
    10    16    18    1
    11    16    19    1
    12    19    20   ar
    13    19    21   ar
    14     2     3   ar
    15     3    22    1
    16    22    23    1
    17    23    24   ar
    18    24    25   ar
    19    25    26   ar
    20    26    29    1
    21    29    30   ar
    22    30    31   ar
    23    31    32   ar
    24    32    33   ar
    25    26    27   ar
    26    27    28   ar
    27     3     4   ar
    28     4     5   ar
    29     5     6   ar
    30     6     7   ar
    31     7    34    1
    32    34    35    1
    33    35    36    1
    34    36    37   ar
    35    37    38   ar
    36    38    39   ar
    37    39    40   ar
    38    40    41   ar
    39     7     8   ar
    40     8     9   ar
    41     9     1   ar
    42    28    23   ar
    43     9     4   ar
    44    33    29   ar
    45    41    36   ar
@<TRIPOS>MOLECULE
*****
 41 45 0 0 0
SMALL
GASTEIGER

@<TRIPOS>ATOM
      1 C          65.1142   91.9888   13.2135 C.ar    1  UNL1        0.0383
      2 C          65.2976   91.3221   14.5447 C.ar    1  UNL1        0.0433
      3 N          64.3810   90.1359   14.5991 N.ar    1  UNL1       -0.3260
      4 C          63.6312   90.0695   13.3017 C.ar    1  UNL1        0.0606
      5 C          62.5945   89.1143   12.7894 C.ar    1  UNL1        0.0203
      6 C          62.0108   89.3041   11.4207 C.ar    1  UNL1        0.0384
      7 C          62.4639   90.4493   10.5644 C.ar    1  UNL1        0.1392
      8 C          63.5007   91.4045   11.0767 C.ar    1  UNL1        0.0389
      9 C          64.0844   91.2146   12.4453 C.ar    1  UNL1        0.0256
     10 S          65.8343   93.2144   12.7347 S.3     1  UNL1       -0.1142
     11 C          67.1957   92.0519   11.5966 C.3     1  UNL1        0.0112
     12 C          66.3651   93.2728   11.3330 C.3     1  UNL1        0.0434
     13 C          65.5346   94.4938   11.0694 C.3     1  UNL1        0.0112
     14 C          66.8960   93.3313    9.9313 C.3     1  UNL1        0.0112
     15 C          66.2332   91.7640   15.6307 C.3     1  UNL1        0.0495
     16 C          67.5967   92.2820   15.2811 C.3     1  UNL1        0.0376
     17 C          67.2626   93.5954   15.9239 C.3     1  UNL1        0.0059
     18 C          67.9309   90.9686   14.6383 C.3     1  UNL1        0.0059
     19 C          68.9604   92.8001   14.9315 C.2     1  UNL1        0.0500
     20 O          69.5422   93.9541   15.6929 O.co2   1  UNL1       -0.5492
     21 O          69.7422   92.1642   13.8205 O.co2   1  UNL1       -0.5492
     22 C          64.2392   89.1834   15.7491 C.3     1  UNL1        0.1324
     23 C          63.9822   87.7283   15.4905 C.ar    1  UNL1        0.0004
     24 C          63.1987   86.9176   16.4799 C.ar    1  UNL1       -0.0023
     25 C          62.9417   85.4626   16.2213 C.ar    1  UNL1        0.0017
     26 C          63.4682   84.8183   14.9733 C.ar    1  UNL1        0.0238
     27 C          64.2517   85.6290   13.9839 C.ar    1  UNL1        0.0017
     28 C          64.5087   87.0840   14.2424 C.ar    1  UNL1       -0.0023
     29 C          63.2112   83.3633   14.7146 C.ar    1  UNL1        0.1108
     30 N          64.2556   82.3002   14.5441 N.ar    1  UNL1       -0.2368
     31 C          63.5546   80.9958   14.3051 C.ar    1  UNL1        0.1064
     32 C          62.0769   81.2527   14.3280 C.ar    1  UNL1        0.0575
     33 S          61.8647   82.7159   14.5810 S.2     1  UNL1       -0.0659
     34 O          61.8802   90.6391    9.1956 O.3     1  UNL1       -0.4690
     35 C          60.5233   90.0857    8.8756 C.3     1  UNL1        0.2508
     36 C          60.3724   88.6424    8.4958 C.ar    1  UNL1        0.1026
     37 C          59.1629   88.1902    7.7326 C.ar    1  UNL1        0.0185
     38 C          59.0120   86.7470    7.3528 C.ar    1  UNL1        0.0029
     39 C          60.0707   85.7559    7.7364 C.ar    1  UNL1        0.0207
     40 C          61.2802   86.2081    8.4997 C.ar    1  UNL1        0.0986
     41 N          61.4310   87.6514    8.8794 N.ar    1  UNL1       -0.2445
@<TRIPOS>UNITY_ATOM_ATTR
20 1
charge -1
@<TRIPOS>BOND
     1    11    12    1
     2    12    13    1
     3    12    14    1
     4    12    10    1
     5    10     1    1
     6     1     2   ar
     7     2    15    1
     8    15    16    1
     9    16    17    1
    10    16    18    1
    11    16    19    1
    12    19    20   ar
    13    19    21   ar
    14     2     3   ar
    15     3    22    1
    16    22    23    1
    17    23    24   ar
    18    24    25   ar
    19    25    26   ar
    20    26    29    1
    21    29    30   ar
    22    30    31   ar
    23    31    32   ar
    24    32    33   ar
    25    26    27   ar
    26    27    28   ar
    27     3     4   ar
    28     4     5   ar
    29     5     6   ar
    30     6     7   ar
    31     7    34    1
    32    34    35    1
    33    35    36    1
    34    36    37   ar
    35    37    38   ar
    36    38    39   ar
    37    39    40   ar
    38    40    41   ar
    39     7     8   ar
    40     8     9   ar
    41     9     1   ar
    42    28    23   ar
    43     9     4   ar
    44    33    29   ar
    45    41    36   ar
@<TRIPOS>MOLECULE
*****
 41 45 0 0 0
SMALL
GASTEIGER

@<TRIPOS>ATOM
      1 C          63.1258   89.7518   12.2724 C.ar    1  UNL1        0.0383
      2 C          63.8406   88.8294   13.2148 C.ar    1  UNL1        0.0433
      3 N          63.3447   87.4360   12.9647 N.ar    1  UNL1       -0.3260
      4 C          62.3234   87.4973   11.8678 C.ar    1  UNL1        0.0606
      5 C          61.4992   86.4347   11.2034 C.ar    1  UNL1        0.0203
      6 C          60.5396   86.8034   10.1110 C.ar    1  UNL1        0.0384
      7 C          60.4043   88.2347    9.6832 C.ar    1  UNL1        0.1392
      8 C          61.2285   89.2973   10.3476 C.ar    1  UNL1        0.0389
      9 C          62.1881   88.9286   11.4399 C.ar    1  UNL1        0.0256
     10 S          63.3153   91.2369   12.1789 S.3     1  UNL1       -0.1142
     11 C          65.1293   92.3142   12.3998 C.3     1  UNL1        0.0112
     12 C          64.3331   91.8051   11.2350 C.3     1  UNL1        0.0434
     13 C          63.5370   91.2961   10.0700 C.3     1  UNL1        0.0112
     14 C          65.3509   92.3734   10.2910 C.3     1  UNL1        0.0112
     15 C          64.8705   89.2300   14.2291 C.3     1  UNL1        0.0495
     16 C          64.6205   90.4041   15.1284 C.3     1  UNL1        0.0376
     17 C          63.3333   89.7822   15.5825 C.3     1  UNL1        0.0059
     18 C          65.9076   91.0261   14.6743 C.3     1  UNL1        0.0059
     19 C          64.3703   91.5783   16.0278 C.2     1  UNL1        0.0500
     20 O          63.0818   91.6788   16.7891 O.co2   1  UNL1       -0.5492
     21 O          65.4087   92.6519   16.1658 O.co2   1  UNL1       -0.5492
     22 C          63.7917   86.1985   13.6851 C.3     1  UNL1        0.1324
     23 C          63.5929   84.8514   13.0559 C.ar    1  UNL1        0.0004
     24 C          62.6046   83.8878   13.6431 C.ar    1  UNL1       -0.0023
     25 C          62.4059   82.5407   13.0141 C.ar    1  UNL1        0.0017
     26 C          63.1955   82.1572   11.7977 C.ar    1  UNL1        0.0238
     27 C          64.1838   83.1207   11.2106 C.ar    1  UNL1        0.0017
     28 C          64.3825   84.4678   11.8396 C.ar    1  UNL1       -0.0023
     29 C          62.9968   80.8101   11.1686 C.ar    1  UNL1        0.1108
     30 N          63.0777   80.5008    9.7031 N.ar    1  UNL1       -0.2368
     31 C          62.8132   79.0353    9.5233 C.ar    1  UNL1        0.1064
     32 C          62.5688   78.4388   10.8777 C.ar    1  UNL1        0.0575
     33 S          62.6822   79.5356   11.8946 S.2     1  UNL1       -0.0659
     34 O          59.4447   88.6034    8.5908 O.3     1  UNL1       -0.4690
     35 C          59.9238   88.7004    7.1727 C.3     1  UNL1        0.2508
     36 C          59.3955   89.7794    6.2746 C.ar    1  UNL1        0.1026
     37 C          60.3461   90.6371    5.4932 C.ar    1  UNL1        0.0185
     38 C          59.8177   91.7161    4.5951 C.ar    1  UNL1        0.0029
     39 C          58.3387   91.9374    4.4784 C.ar    1  UNL1        0.0207
     40 C          57.3881   91.0797    5.2598 C.ar    1  UNL1        0.0986
     41 N          57.9165   90.0007    6.1579 N.ar    1  UNL1       -0.2445
@<TRIPOS>UNITY_ATOM_ATTR
20 1
charge -1
@<TRIPOS>BOND
     1    11    12    1
     2    12    13    1
     3    12    14    1
     4    12    10    1
     5    10     1    1
     6     1     2   ar
     7     2    15    1
     8    15    16    1
     9    16    17    1
    10    16    18    1
    11    16    19    1
    12    19    20   ar
    13    19    21   ar
    14     2     3   ar
    15     3    22    1
    16    22    23    1
    17    23    24   ar
    18    24    25   ar
    19    25    26   ar
    20    26    29    1
    21    29    30   ar
    22    30    31   ar
    23    31    32   ar
    24    32    33   ar
    25    26    27   ar
    26    27    28   ar
    27     3     4   ar
    28     4     5   ar
    29     5     6   ar
    30     6     7   ar
    31     7    34    1
    32    34    35    1
    33    35    36    1
    34    36    37   ar
    35    37    38   ar
    36    38    39   ar
    37    39    40   ar
    38    40    41   ar
    39     7     8   ar
    40     8     9   ar
    41     9     1   ar
    42    28    23   ar
    43     9     4   ar
    44    33    29   ar
    45    41    36   ar
@<TRIPOS>MOLECULE
*****
 41 45 0 0 0
SMALL
GASTEIGER

@<TRIPOS>ATOM
      1 C          64.2895   91.4452   12.2110 C.ar    1  UNL1        0.0383
      2 C          64.9603   90.6577   13.2972 C.ar    1  UNL1        0.0433
      3 N          64.0943   89.4748   13.6145 N.ar    1  UNL1       -0.3260
      4 C          62.8882   89.5312   12.7244 C.ar    1  UNL1        0.0606
      5 C          61.6957   88.6311   12.5917 C.ar    1  UNL1        0.0203
      6 C          60.6239   88.9487   11.5916 C.ar    1  UNL1        0.0384
      7 C          60.7445   90.1665   10.7242 C.ar    1  UNL1        0.1392
      8 C          61.9370   91.0667   10.8569 C.ar    1  UNL1        0.0389
      9 C          63.0088   90.7491   11.8570 C.ar    1  UNL1        0.0256
     10 S          64.8082   92.7074   11.5882 S.3     1  UNL1       -0.1142
     11 C          66.5822   93.8016   11.9824 C.3     1  UNL1        0.0112
     12 C          66.1867   92.7410   10.9981 C.3     1  UNL1        0.0434
     13 C          65.7913   91.6805   10.0138 C.3     1  UNL1        0.0112
     14 C          67.5653   92.7746   10.4079 C.3     1  UNL1        0.0112
     15 C          66.2677   90.9940   13.9512 C.3     1  UNL1        0.0495
     16 C          66.2948   91.8791   15.1619 C.3     1  UNL1        0.0376
     17 C          64.8261   91.6498   15.3625 C.3     1  UNL1        0.0059
     18 C          67.7635   92.1084   14.9614 C.3     1  UNL1        0.0059
     19 C          66.3219   92.7642   16.3727 C.2     1  UNL1        0.0500
     20 O          65.1559   92.7804   17.3162 O.co2   1  UNL1       -0.5492
     21 O          67.5150   93.6332   16.6400 O.co2   1  UNL1       -0.5492
     22 C          64.3835   88.4205   14.6415 C.3     1  UNL1        0.1324
     23 C          64.0576   86.9846   14.3547 C.ar    1  UNL1        0.0004
     24 C          64.1818   85.9562   15.4396 C.ar    1  UNL1       -0.0023
     25 C          63.8559   84.5204   15.1529 C.ar    1  UNL1        0.0017
     26 C          63.4058   84.1130   13.7812 C.ar    1  UNL1        0.0238
     27 C          63.2816   85.1414   12.6964 C.ar    1  UNL1        0.0017
     28 C          63.6075   86.5772   12.9831 C.ar    1  UNL1       -0.0023
     29 C          63.0799   82.6772   13.4944 C.ar    1  UNL1        0.1108
     30 N          62.5392   81.6823   14.4782 N.ar    1  UNL1       -0.2368
     31 C          62.3626   80.3745   13.7652 C.ar    1  UNL1        0.1064
     32 C          62.7941   80.5610   12.3408 C.ar    1  UNL1        0.0575
     33 S          63.2374   81.9842   12.1734 S.2     1  UNL1       -0.0659
     34 O          59.6726   90.4842    9.7241 O.3     1  UNL1       -0.4690
     35 C          59.6560   89.7876    8.3958 C.3     1  UNL1        0.2508
     36 C          60.1047   88.3600    8.2919 C.ar    1  UNL1        0.1026
     37 C          61.4120   87.9389    8.8947 C.ar    1  UNL1        0.0185
     38 C          61.8606   86.5114    8.7908 C.ar    1  UNL1        0.0029
     39 C          61.0019   85.5049    8.0840 C.ar    1  UNL1        0.0207
     40 C          59.6945   85.9260    7.4812 C.ar    1  UNL1        0.0986
     41 N          59.2459   87.3535    7.5851 N.ar    1  UNL1       -0.2445
@<TRIPOS>UNITY_ATOM_ATTR
20 1
charge -1
@<TRIPOS>BOND
     1    11    12    1
     2    12    13    1
     3    12    14    1
     4    12    10    1
     5    10     1    1
     6     1     2   ar
     7     2    15    1
     8    15    16    1
     9    16    17    1
    10    16    18    1
    11    16    19    1
    12    19    20   ar
    13    19    21   ar
    14     2     3   ar
    15     3    22    1
    16    22    23    1
    17    23    24   ar
    18    24    25   ar
    19    25    26   ar
    20    26    29    1
    21    29    30   ar
    22    30    31   ar
    23    31    32   ar
    24    32    33   ar
    25    26    27   ar
    26    27    28   ar
    27     3     4   ar
    28     4     5   ar
    29     5     6   ar
    30     6     7   ar
    31     7    34    1
    32    34    35    1
    33    35    36    1
    34    36    37   ar
    35    37    38   ar
    36    38    39   ar
    37    39    40   ar
    38    40    41   ar
    39     7     8   ar
    40     8     9   ar
    41     9     1   ar
    42    28    23   ar
    43     9     4   ar
    44    33    29   ar
    45    41    36   ar
