@<TRIPOS>MOLECULE
*****
 36 39 0 0 0
SMALL
GASTEIGER

@<TRIPOS>ATOM
      1 N          62.8559   90.7771   11.6695 N.am    1  UNL1       -0.2438
      2 C          63.3391   91.4321   10.4096 C.3     1  UNL1        0.1009
      3 C          64.5049   92.3749   10.4540 C.3     1  UNL1        0.0661
      4 C          65.1875   92.6628   11.7583 C.3     1  UNL1        0.1578
      5 O          64.7043   92.0078   13.0183 O.3     1  UNL1       -0.4375
      6 C          63.5385   91.0649   12.9739 C.2     1  UNL1        0.4051
      7 O          63.0552   90.4099   14.2338 O.2     1  UNL1       -0.2262
      8 C          66.0066   93.5213   10.8406 C.ar    1  UNL1        0.0139
      9 C          65.7192   94.9895   10.7318 C.ar    1  UNL1        0.0014
     10 C          66.5383   95.8481    9.8141 C.ar    1  UNL1        0.0294
     11 C          67.6447   95.2383    9.0054 C.ar    1  UNL1        0.1401
     12 F          68.4638   96.0969    8.0877 F       1  UNL1       -0.2042
     13 C          67.9320   93.7702    9.1142 C.ar    1  UNL1        0.0294
     14 C          67.1130   92.9116   10.0318 C.ar    1  UNL1        0.0014
     15 C          60.2912   90.3731   11.5758 C.3     1  UNL1        0.0265
     16 C          61.6901   89.8342   11.6251 C.3     1  UNL1        0.1011
     17 C          61.9234   88.3524   11.6301 C.ar    1  UNL1       -0.0042
     18 C          61.0597   87.4544   10.7949 C.ar    1  UNL1       -0.0027
     19 C          61.2929   85.9727   10.7999 C.ar    1  UNL1       -0.0002
     20 C          62.3899   85.3890   11.6401 C.ar    1  UNL1        0.0021
     21 C          63.2536   86.2870   12.4753 C.ar    1  UNL1       -0.0002
     22 C          63.0203   87.7687   12.4703 C.ar    1  UNL1       -0.0027
     23 C          62.6231   83.9072   11.6451 C.ar    1  UNL1        0.0276
     24 C          62.2126   83.0873   12.8322 C.ar    1  UNL1        0.0045
     25 C          62.4459   81.6055   12.8372 C.ar    1  UNL1        0.0298
     26 C          63.0896   80.9437   11.6550 C.ar    1  UNL1        0.1424
     27 F          63.3229   79.4620   11.6599 F       1  UNL1       -0.2041
     28 C          63.5002   81.7636   10.4679 C.ar    1  UNL1        0.0592
     29 C          63.2669   83.2453   10.4629 C.ar    1  UNL1        0.1423
     30 F          63.6774   84.0653    9.2758 F       1  UNL1       -0.2041
     31 C          66.1545   93.2488   12.7439 C.3     1  UNL1        0.0460
     32 C          66.5887   92.4480   13.9355 C.3     1  UNL1        0.0208
     33 C          68.0415   92.1358   14.1406 C.3     1  UNL1        0.0653
     34 N          68.8830   91.6881   12.9824 N.3     1  UNL1       -0.3211
     35 H          68.5571   90.7780   12.6571 H       1  UNL1        0.1189
     36 H          69.8566   91.6150   13.2778 H       1  UNL1        0.1189
@<TRIPOS>BOND
     1    16    15    1
     2    16    17    1
     3    17    18   ar
     4    18    19   ar
     5    19    20   ar
     6    20    23    1
     7    23    24   ar
     8    24    25   ar
     9    25    26   ar
    10    26    27    1
    11    26    28   ar
    12    28    29   ar
    13    29    30    1
    14    20    21   ar
    15    21    22   ar
    16    16     1    1
    17     1     2    1
    18     2     3    1
    19     3     4    1
    20     4    31    1
    21    31    32    1
    22    32    33    1
    23    33    34    1
    24     4     8    1
    25     8     9   ar
    26     9    10   ar
    27    10    11   ar
    28    11    12    1
    29    11    13   ar
    30    13    14   ar
    31     4     5    1
    32     5     6    1
    33     6     7    2
    34    22    17   ar
    35     6     1   am
    36    29    23   ar
    37    14     8   ar
    38    34    35    1
    39    34    36    1
@<TRIPOS>MOLECULE
*****
 36 39 0 0 0
SMALL
GASTEIGER

@<TRIPOS>ATOM
      1 N          63.2748   90.3219   12.0151 N.am    1  UNL1       -0.2438
      2 C          64.0079   90.2203   13.3197 C.3     1  UNL1        0.1009
      3 C          65.2090   91.0821   13.5742 C.3     1  UNL1        0.0661
      4 C          65.6769   92.0455   12.5240 C.3     1  UNL1        0.1578
      5 O          64.9438   92.1471   11.2193 O.3     1  UNL1       -0.4375
      6 C          63.7427   91.2854   10.9648 C.2     1  UNL1        0.4051
      7 O          63.0095   91.3870    9.6602 O.2     1  UNL1       -0.2262
      8 C          66.6955   92.3104   13.5929 C.ar    1  UNL1        0.0139
      9 C          68.1392   91.9833   13.3507 C.ar    1  UNL1        0.0014
     10 C          69.1578   92.2483   14.4196 C.ar    1  UNL1        0.0294
     11 C          68.7325   92.8402   15.7306 C.ar    1  UNL1        0.1401
     12 F          69.7510   93.1051   16.7994 F       1  UNL1       -0.2042
     13 C          67.2887   93.1673   15.9728 C.ar    1  UNL1        0.0294
     14 C          66.2702   92.9023   14.9039 C.ar    1  UNL1        0.0014
     15 C          60.7328   90.0917   11.5301 C.3     1  UNL1        0.0265
     16 C          62.0737   89.4602   11.7606 C.3     1  UNL1        0.1011
     17 C          62.2136   87.9668   11.7366 C.ar    1  UNL1       -0.0042
     18 C          63.1442   87.2852   12.6953 C.ar    1  UNL1       -0.0027
     19 C          63.2841   85.7920   12.6713 C.ar    1  UNL1       -0.0002
     20 C          62.4932   84.9804   11.6886 C.ar    1  UNL1        0.0021
     21 C          61.5625   85.6620   10.7298 C.ar    1  UNL1       -0.0002
     22 C          61.4227   87.1552   10.7539 C.ar    1  UNL1       -0.0027
     23 C          62.6331   83.4870   11.6646 C.ar    1  UNL1        0.0276
     24 C          62.1946   82.6736   12.8460 C.ar    1  UNL1        0.0045
     25 C          62.3344   81.1803   12.8221 C.ar    1  UNL1        0.0298
     26 C          62.9129   80.5005   11.6165 C.ar    1  UNL1        0.1424
     27 F          63.0528   79.0072   11.5925 F       1  UNL1       -0.2041
     28 C          63.3514   81.3140   10.4350 C.ar    1  UNL1        0.0592
     29 C          63.2115   82.8072   10.4590 C.ar    1  UNL1        0.1423
     30 F          63.6501   83.6208    9.2775 F       1  UNL1       -0.2041
     31 C          66.4986   93.1009   11.8450 C.3     1  UNL1        0.0460
     32 C          66.6295   93.1037   10.3508 C.3     1  UNL1        0.0208
     33 C          67.7753   93.8200    9.6995 C.3     1  UNL1        0.0653
     34 N          69.1522   93.2265    9.7420 N.3     1  UNL1       -0.3211
     35 H          69.4862   93.2109   10.7057 H       1  UNL1        0.1189
     36 H          69.7832   93.7904    9.1726 H       1  UNL1        0.1189
@<TRIPOS>BOND
     1    16    15    1
     2    16    17    1
     3    17    18   ar
     4    18    19   ar
     5    19    20   ar
     6    20    23    1
     7    23    24   ar
     8    24    25   ar
     9    25    26   ar
    10    26    27    1
    11    26    28   ar
    12    28    29   ar
    13    29    30    1
    14    20    21   ar
    15    21    22   ar
    16    16     1    1
    17     1     2    1
    18     2     3    1
    19     3     4    1
    20     4    31    1
    21    31    32    1
    22    32    33    1
    23    33    34    1
    24     4     8    1
    25     8     9   ar
    26     9    10   ar
    27    10    11   ar
    28    11    12    1
    29    11    13   ar
    30    13    14   ar
    31     4     5    1
    32     5     6    1
    33     6     7    2
    34    22    17   ar
    35     6     1   am
    36    29    23   ar
    37    14     8   ar
    38    34    35    1
    39    34    36    1
@<TRIPOS>MOLECULE
*****
 36 39 0 0 0
SMALL
GASTEIGER

@<TRIPOS>ATOM
      1 N          63.3915   90.5382   11.9143 N.am    1  UNL1       -0.2438
      2 C          64.1245   90.4639   13.2208 C.3     1  UNL1        0.1009
      3 C          65.3300   91.3255   13.4544 C.3     1  UNL1        0.0661
      4 C          65.8025   92.2612   12.3815 C.3     1  UNL1        0.1578
      5 O          65.0694   92.3355   11.0749 O.3     1  UNL1       -0.4375
      6 C          63.8639   91.4740   10.8413 C.2     1  UNL1        0.4051
      7 O          63.1308   91.5482    9.5348 O.2     1  UNL1       -0.2262
      8 C          66.8227   92.5463   13.4436 C.ar    1  UNL1        0.0139
      9 C          66.4908   93.4777   14.5716 C.ar    1  UNL1        0.0014
     10 C          67.5110   93.7628   15.6337 C.ar    1  UNL1        0.0294
     11 C          68.8631   93.1166   15.5676 C.ar    1  UNL1        0.1401
     12 F          69.8833   93.4017   16.6296 F       1  UNL1       -0.2042
     13 C          69.1949   92.1852   14.4396 C.ar    1  UNL1        0.0294
     14 C          68.1747   91.9001   13.3775 C.ar    1  UNL1        0.0014
     15 C          60.8698   90.3067   11.3332 C.3     1  UNL1        0.0265
     16 C          62.1860   89.6767   11.6806 C.3     1  UNL1        0.1011
     17 C          62.2967   88.1851   11.7945 C.ar    1  UNL1       -0.0042
     18 C          61.4338   87.3018   10.9430 C.ar    1  UNL1       -0.0027
     19 C          61.5445   85.8102   11.0569 C.ar    1  UNL1       -0.0002
     20 C          62.5181   85.2020   12.0223 C.ar    1  UNL1        0.0021
     21 C          63.3810   86.0853   12.8738 C.ar    1  UNL1       -0.0002
     22 C          63.2703   87.5768   12.7599 C.ar    1  UNL1       -0.0027
     23 C          62.6288   83.7104   12.1361 C.ar    1  UNL1        0.0276
     24 C          63.0452   82.8963   10.9471 C.ar    1  UNL1        0.0045
     25 C          63.1559   81.4046   11.0610 C.ar    1  UNL1        0.0298
     26 C          62.8502   80.7272   12.3639 C.ar    1  UNL1        0.1424
     27 F          62.9609   79.2357   12.4778 F       1  UNL1       -0.2041
     28 C          62.4338   81.5414   13.5530 C.ar    1  UNL1        0.0592
     29 C          62.3231   83.0329   13.4391 C.ar    1  UNL1        0.1423
     30 F          61.9067   83.8471   14.6281 F       1  UNL1       -0.2041
     31 C          66.6292   93.2960   11.6774 C.3     1  UNL1        0.0460
     32 C          65.9729   94.2798   10.7548 C.3     1  UNL1        0.0208
     33 C          66.3443   95.7317   10.8192 C.3     1  UNL1        0.0653
     34 N          65.8084   96.5945   11.9230 N.3     1  UNL1       -0.3211
     35 H          64.7968   96.6812   11.8261 H       1  UNL1        0.1189
     36 H          66.2356   97.5192   11.8695 H       1  UNL1        0.1189
@<TRIPOS>BOND
     1    16    15    1
     2    16    17    1
     3    17    18   ar
     4    18    19   ar
     5    19    20   ar
     6    20    23    1
     7    23    24   ar
     8    24    25   ar
     9    25    26   ar
    10    26    27    1
    11    26    28   ar
    12    28    29   ar
    13    29    30    1
    14    20    21   ar
    15    21    22   ar
    16    16     1    1
    17     1     2    1
    18     2     3    1
    19     3     4    1
    20     4    31    1
    21    31    32    1
    22    32    33    1
    23    33    34    1
    24     4     8    1
    25     8     9   ar
    26     9    10   ar
    27    10    11   ar
    28    11    12    1
    29    11    13   ar
    30    13    14   ar
    31     4     5    1
    32     5     6    1
    33     6     7    2
    34    22    17   ar
    35     6     1   am
    36    29    23   ar
    37    14     8   ar
    38    34    35    1
    39    34    36    1
@<TRIPOS>MOLECULE
*****
 36 39 0 0 0
SMALL
GASTEIGER

@<TRIPOS>ATOM
      1 N          45.5302   75.9230   18.3419 N.am    1  UNL1       -0.2438
      2 C          44.4799   76.8303   17.7732 C.3     1  UNL1        0.1009
      3 C          44.8212   78.2501   17.4299 C.3     1  UNL1        0.0661
      4 C          46.2128   78.7625   17.6553 C.3     1  UNL1        0.1578
      5 O          47.2632   77.8551   18.2241 O.3     1  UNL1       -0.4375
      6 C          46.9219   76.4353   18.5674 C.2     1  UNL1        0.4051
      7 O          47.9722   75.5280   19.1361 O.2     1  UNL1       -0.2262
      8 C          45.5680   79.9967   17.0976 C.ar    1  UNL1        0.0139
      9 C          44.3569   80.5773   17.7656 C.ar    1  UNL1        0.0014
     10 C          43.7121   81.8115   17.2079 C.ar    1  UNL1        0.0294
     11 C          44.2784   82.4650   15.9822 C.ar    1  UNL1        0.1401
     12 F          43.6336   83.6992   15.4245 F       1  UNL1       -0.2042
     13 C          45.4895   81.8844   15.3143 C.ar    1  UNL1        0.0294
     14 C          46.1343   80.6502   15.8720 C.ar    1  UNL1        0.0014
     15 C          44.8616   74.1319   20.1011 C.3     1  UNL1        0.0265
     16 C          45.1889   74.5032   18.6852 C.3     1  UNL1        0.1011
     17 C          45.1749   73.4548   17.6124 C.ar    1  UNL1       -0.0042
     18 C          45.3596   73.8482   16.1768 C.ar    1  UNL1       -0.0027
     19 C          45.3456   72.7998   15.1041 C.ar    1  UNL1       -0.0002
     20 C          45.1469   71.3580   15.4671 C.ar    1  UNL1        0.0021
     21 C          44.9622   70.9646   16.9027 C.ar    1  UNL1       -0.0002
     22 C          44.9762   72.0130   17.9754 C.ar    1  UNL1       -0.0027
     23 C          45.1329   70.3096   14.3944 C.ar    1  UNL1        0.0276
     24 C          44.0513   70.3143   13.3552 C.ar    1  UNL1        0.0045
     25 C          44.0373   69.2659   12.2824 C.ar    1  UNL1        0.0298
     26 C          45.1050   68.2128   12.2489 C.ar    1  UNL1        0.1424
     27 F          45.0911   67.1645   11.1763 F       1  UNL1       -0.2041
     28 C          46.1867   68.2082   13.2882 C.ar    1  UNL1        0.0592
     29 C          46.2006   69.2566   14.3609 C.ar    1  UNL1        0.1423
     30 F          47.2823   69.2519   15.4002 F       1  UNL1       -0.2041
     31 C          47.3805   79.7035   17.6871 C.3     1  UNL1        0.0460
     32 C          47.9682   80.1254   19.0011 C.3     1  UNL1        0.0208
     33 C          47.2562   81.1354   19.8514 C.3     1  UNL1        0.0653
     34 N          47.1627   82.5630   19.4005 N.3     1  UNL1       -0.3211
     35 H          48.0947   82.9772   19.3877 H       1  UNL1        0.1189
     36 H          46.5676   83.0846   20.0440 H       1  UNL1        0.1189
@<TRIPOS>BOND
     1    16    15    1
     2    16    17    1
     3    17    18   ar
     4    18    19   ar
     5    19    20   ar
     6    20    23    1
     7    23    24   ar
     8    24    25   ar
     9    25    26   ar
    10    26    27    1
    11    26    28   ar
    12    28    29   ar
    13    29    30    1
    14    20    21   ar
    15    21    22   ar
    16    16     1    1
    17     1     2    1
    18     2     3    1
    19     3     4    1
    20     4    31    1
    21    31    32    1
    22    32    33    1
    23    33    34    1
    24     4     8    1
    25     8     9   ar
    26     9    10   ar
    27    10    11   ar
    28    11    12    1
    29    11    13   ar
    30    13    14   ar
    31     4     5    1
    32     5     6    1
    33     6     7    2
    34    22    17   ar
    35     6     1   am
    36    29    23   ar
    37    14     8   ar
    38    34    35    1
    39    34    36    1
@<TRIPOS>MOLECULE
*****
 36 39 0 0 0
SMALL
GASTEIGER

@<TRIPOS>ATOM
      1 N          62.0323   88.1321   11.1444 N.am    1  UNL1       -0.2438
      2 C          61.5588   88.1624    9.7214 C.3     1  UNL1        0.1009
      3 C          61.7458   86.9610    8.8430 C.3     1  UNL1        0.0661
      4 C          62.4064   85.7293    9.3875 C.3     1  UNL1        0.1578
      5 O          62.8799   85.6989   10.8105 O.3     1  UNL1       -0.4375
      6 C          62.6928   86.9003   11.6890 C.2     1  UNL1        0.4051
      7 O          63.1663   86.8700   13.1119 O.2     1  UNL1       -0.2262
      8 C          62.1288   85.2773    7.9844 C.ar    1  UNL1        0.0139
      9 C          60.7235   85.2794    7.4599 C.ar    1  UNL1        0.0014
     10 C          60.4459   84.8274    6.0568 C.ar    1  UNL1        0.0294
     11 C          61.5737   84.3733    5.1782 C.ar    1  UNL1        0.1401
     12 F          61.2961   83.9213    3.7751 F       1  UNL1       -0.2042
     13 C          62.9790   84.3712    5.7027 C.ar    1  UNL1        0.0294
     14 C          63.2566   84.8232    7.1058 C.ar    1  UNL1        0.0014
     15 C          60.4674   89.8686   12.2782 C.3     1  UNL1        0.0265
     16 C          61.8452   89.3335   12.0228 C.3     1  UNL1        0.1011
     17 C          63.0360   89.9998   12.6458 C.ar    1  UNL1       -0.0042
     18 C          63.5052   89.5774   14.0065 C.ar    1  UNL1       -0.0027
     19 C          64.6960   90.2437   14.6294 C.ar    1  UNL1       -0.0002
     20 C          65.4176   91.3323   13.8917 C.ar    1  UNL1        0.0021
     21 C          64.9484   91.7546   12.5310 C.ar    1  UNL1       -0.0002
     22 C          63.7576   91.0884   11.9081 C.ar    1  UNL1       -0.0027
     23 C          66.6084   91.9986   14.5147 C.ar    1  UNL1        0.0276
     24 C          67.9275   91.9971   13.8007 C.ar    1  UNL1        0.0045
     25 C          69.1184   92.6634   14.4237 C.ar    1  UNL1        0.0298
     26 C          68.9900   93.3312   15.7607 C.ar    1  UNL1        0.1424
     27 F          70.1807   93.9975   16.3837 F       1  UNL1       -0.2041
     28 C          67.6708   93.3327   16.4747 C.ar    1  UNL1        0.0592
     29 C          66.4800   92.6664   15.8517 C.ar    1  UNL1        0.1423
     30 F          65.1608   92.6679   16.5657 F       1  UNL1       -0.2041
     31 C          62.9705   84.3405    9.4448 C.3     1  UNL1        0.0460
     32 C          63.3611   83.7435   10.7642 C.3     1  UNL1        0.0208
     33 C          64.3179   82.5892   10.8113 C.3     1  UNL1        0.0653
     34 N          65.0815   82.2990   12.0693 N.3     1  UNL1       -0.3211
     35 H          65.7282   83.0646   12.2588 H       1  UNL1        0.1189
     36 H          65.6057   81.4313   11.9564 H       1  UNL1        0.1189
@<TRIPOS>BOND
     1    16    15    1
     2    16    17    1
     3    17    18   ar
     4    18    19   ar
     5    19    20   ar
     6    20    23    1
     7    23    24   ar
     8    24    25   ar
     9    25    26   ar
    10    26    27    1
    11    26    28   ar
    12    28    29   ar
    13    29    30    1
    14    20    21   ar
    15    21    22   ar
    16    16     1    1
    17     1     2    1
    18     2     3    1
    19     3     4    1
    20     4    31    1
    21    31    32    1
    22    32    33    1
    23    33    34    1
    24     4     8    1
    25     8     9   ar
    26     9    10   ar
    27    10    11   ar
    28    11    12    1
    29    11    13   ar
    30    13    14   ar
    31     4     5    1
    32     5     6    1
    33     6     7    2
    34    22    17   ar
    35     6     1   am
    36    29    23   ar
    37    14     8   ar
    38    34    35    1
    39    34    36    1
@<TRIPOS>MOLECULE
*****
 36 39 0 0 0
SMALL
GASTEIGER

@<TRIPOS>ATOM
      1 N          62.2993   87.8145   11.4262 N.am    1  UNL1       -0.2438
      2 C          62.3455   86.6659   12.3899 C.3     1  UNL1        0.1009
      3 C          62.5160   85.2656   11.8800 C.3     1  UNL1        0.0661
      4 C          62.6403   85.0138   10.4066 C.3     1  UNL1        0.1578
      5 O          62.5940   86.1624    9.4429 O.3     1  UNL1       -0.4375
      6 C          62.4236   87.5627    9.9527 C.2     1  UNL1        0.4051
      7 O          62.3773   88.7113    8.9891 O.2     1  UNL1       -0.2262
      8 C          62.7420   83.6082   10.9205 C.ar    1  UNL1        0.0139
      9 C          62.2096   83.2666   12.2806 C.ar    1  UNL1        0.0014
     10 C          62.3113   81.8610   12.7945 C.ar    1  UNL1        0.0294
     11 C          62.9453   80.7971   11.9483 C.ar    1  UNL1        0.1401
     12 F          63.0469   79.3915   12.4622 F       1  UNL1       -0.2042
     13 C          63.4776   81.1387   10.5882 C.ar    1  UNL1        0.0294
     14 C          63.3760   82.5443   10.0743 C.ar    1  UNL1        0.0014
     15 C          60.8056   89.9076   11.7975 C.3     1  UNL1        0.0265
     16 C          62.1288   89.2148   11.9361 C.3     1  UNL1        0.1011
     17 C          63.2816   89.9225   12.5845 C.ar    1  UNL1       -0.0042
     18 C          63.8870   89.3734   13.8423 C.ar    1  UNL1       -0.0027
     19 C          65.0397   90.0811   14.4907 C.ar    1  UNL1       -0.0002
     20 C          65.5870   91.3377   13.8813 C.ar    1  UNL1        0.0021
     21 C          64.9816   91.8867   12.6236 C.ar    1  UNL1       -0.0002
     22 C          63.8289   91.1791   11.9752 C.ar    1  UNL1       -0.0027
     23 C          66.7398   92.0454   14.5298 C.ar    1  UNL1        0.0276
     24 C          66.5446   92.7561   15.8362 C.ar    1  UNL1        0.0045
     25 C          67.6973   93.4637   16.4846 C.ar    1  UNL1        0.0298
     26 C          69.0453   93.4606   15.8267 C.ar    1  UNL1        0.1424
     27 F          70.1981   94.1681   16.4750 F       1  UNL1       -0.2041
     28 C          69.2405   92.7498   14.5202 C.ar    1  UNL1        0.0592
     29 C          68.0878   92.0422   13.8718 C.ar    1  UNL1        0.1423
     30 F          68.2830   91.3314   12.5654 F       1  UNL1       -0.2041
     31 C          62.7999   84.2738    9.1116 C.3     1  UNL1        0.0460
     32 C          62.8076   85.0261    7.8139 C.3     1  UNL1        0.0208
     33 C          61.6627   84.8806    6.8558 C.3     1  UNL1        0.0653
     34 N          60.3308   85.4892    7.1808 N.3     1  UNL1       -0.3211
     35 H          59.9326   85.0212    7.9949 H       1  UNL1        0.1189
     36 H          59.7031   85.3789    6.3844 H       1  UNL1        0.1189
@<TRIPOS>BOND
     1    16    15    1
     2    16    17    1
     3    17    18   ar
     4    18    19   ar
     5    19    20   ar
     6    20    23    1
     7    23    24   ar
     8    24    25   ar
     9    25    26   ar
    10    26    27    1
    11    26    28   ar
    12    28    29   ar
    13    29    30    1
    14    20    21   ar
    15    21    22   ar
    16    16     1    1
    17     1     2    1
    18     2     3    1
    19     3     4    1
    20     4    31    1
    21    31    32    1
    22    32    33    1
    23    33    34    1
    24     4     8    1
    25     8     9   ar
    26     9    10   ar
    27    10    11   ar
    28    11    12    1
    29    11    13   ar
    30    13    14   ar
    31     4     5    1
    32     5     6    1
    33     6     7    2
    34    22    17   ar
    35     6     1   am
    36    29    23   ar
    37    14     8   ar
    38    34    35    1
    39    34    36    1
