@<TRIPOS>MOLECULE
*****
 26 29 0 0 0
SMALL
GASTEIGER

@<TRIPOS>ATOM
      1 C          64.2861   90.4260   14.5375 C.ar    1  UNL1        0.0537
      2 C          64.4770   88.9855   14.9095 C.ar    1  UNL1        0.0061
      3 C          64.0203   87.9031   13.9767 C.ar    1  UNL1        0.0193
      4 C          63.3727   88.2613   12.6720 C.ar    1  UNL1        0.0825
      5 C          63.1819   89.7019   12.3000 C.ar    1  UNL1        0.0193
      6 C          63.6386   90.7842   13.2328 C.ar    1  UNL1        0.0061
      7 N          62.9160   87.1790   11.7393 N.ar    1  UNL1       -0.2316
      8 N          62.3364   87.3812   10.3706 N.ar    1  UNL1       -0.1617
      9 C          62.0209   86.0316    9.7969 C.ar    1  UNL1        0.1698
     10 C          62.4055   84.9954   10.8110 C.ar    1  UNL1        0.0197
     11 C          62.9587   85.7045   12.0114 C.ar    1  UNL1        0.0878
     12 C          63.4299   84.9160   13.1973 C.3     1  UNL1        0.1872
     13 O          63.3479   83.4184   13.1826 O.3     1  UNL1       -0.3470
     14 C          62.7947   82.7092   11.9822 C.3     1  UNL1        0.1474
     15 C          62.3235   83.4977   10.7964 C.3     1  UNL1        0.0612
     16 C          61.4254   85.7650    8.4463 C.3     1  UNL1        0.4362
     17 F          60.8299   85.4984    7.0956 F       1  UNL1       -0.1644
     18 F          62.7841   85.4141    7.9164 F       1  UNL1       -0.1644
     19 F          60.0667   86.1160    8.9761 F       1  UNL1       -0.1644
     20 O          63.7930   92.0758   16.4831 O.2     1  UNL1       -0.2699
     21 C          64.7428   91.5083   15.4703 C.2     1  UNL1        0.2490
     22 N          66.1494   92.0231   15.3902 N.am    1  UNL1       -0.2761
     23 C          66.7460   93.0964   16.2519 C.3     1  UNL1        0.0938
     24 C          68.1716   93.2916   15.8287 C.3     1  UNL1        0.0233
     25 C          68.4564   92.3391   14.7054 C.3     1  UNL1        0.0233
     26 C          67.2066   91.5551   14.4344 C.3     1  UNL1        0.0938
@<TRIPOS>BOND
     1    20    21    2
     2    21     1    1
     3     1     2   ar
     4     2     3   ar
     5     3     4   ar
     6     4     7    1
     7     7     8   ar
     8     8     9   ar
     9     9    16    1
    10    16    17    1
    11    16    18    1
    12    16    19    1
    13     9    10   ar
    14    10    11   ar
    15    11    12    1
    16    12    13    1
    17    13    14    1
    18    14    15    1
    19     4     5   ar
    20     5     6   ar
    21    21    22   am
    22    22    23    1
    23    23    24    1
    24    24    25    1
    25    25    26    1
    26     6     1   ar
    27    26    22    1
    28    11     7   ar
    29    15    10    1
@<TRIPOS>MOLECULE
*****
 26 29 0 0 0
SMALL
GASTEIGER

@<TRIPOS>ATOM
      1 C          64.2610   90.2918   14.6086 C.ar    1  UNL1        0.0537
      2 C          64.5197   88.8743   15.0257 C.ar    1  UNL1        0.0061
      3 C          64.1042   87.7423   14.1335 C.ar    1  UNL1        0.0193
      4 C          63.4301   88.0277   12.8243 C.ar    1  UNL1        0.0825
      5 C          63.1714   89.4452   12.4072 C.ar    1  UNL1        0.0193
      6 C          63.5868   90.5772   13.2994 C.ar    1  UNL1        0.0061
      7 N          63.0147   86.8957   11.9321 N.ar    1  UNL1       -0.2316
      8 N          63.4065   85.4567   12.0931 N.ar    1  UNL1       -0.1617
      9 C          62.7685   84.6757   10.9828 C.ar    1  UNL1        0.1698
     10 C          61.9823   85.6319   10.1356 C.ar    1  UNL1        0.0197
     11 C          62.1344   87.0039   10.7224 C.ar    1  UNL1        0.0878
     12 C          61.4518   88.1746   10.0793 C.3     1  UNL1        0.1872
     13 O          60.6170   87.9731    8.8495 O.3     1  UNL1       -0.3470
     14 C          60.4649   86.6011    8.2627 C.3     1  UNL1        0.1474
     15 C          61.1475   85.4304    8.9058 C.3     1  UNL1        0.0612
     16 C          62.8944   83.1978   10.7588 C.3     1  UNL1        0.4362
     17 F          63.0205   81.7200   10.5348 F       1  UNL1       -0.1644
     18 F          63.7477   83.4534    9.5519 F       1  UNL1       -0.1644
     19 F          62.0413   82.9422   11.9657 F       1  UNL1       -0.1644
     20 O          63.6976   92.0087   16.4754 O.2     1  UNL1       -0.2699
     21 C          64.6764   91.4238   15.5008 C.2     1  UNL1        0.2490
     22 N          66.0706   91.9708   15.4183 N.am    1  UNL1       -0.2761
     23 C          66.6271   93.0944   16.2418 C.3     1  UNL1        0.0938
     24 C          68.0536   93.3084   15.8304 C.3     1  UNL1        0.0233
     25 C          68.3788   92.3170   14.7526 C.3     1  UNL1        0.0233
     26 C          67.1533   91.4904   14.4979 C.3     1  UNL1        0.0938
@<TRIPOS>BOND
     1    20    21    2
     2    21     1    1
     3     1     2   ar
     4     2     3   ar
     5     3     4   ar
     6     4     7    1
     7     7     8   ar
     8     8     9   ar
     9     9    16    1
    10    16    17    1
    11    16    18    1
    12    16    19    1
    13     9    10   ar
    14    10    11   ar
    15    11    12    1
    16    12    13    1
    17    13    14    1
    18    14    15    1
    19     4     5   ar
    20     5     6   ar
    21    21    22   am
    22    22    23    1
    23    23    24    1
    24    24    25    1
    25    25    26    1
    26     6     1   ar
    27    26    22    1
    28    11     7   ar
    29    15    10    1
@<TRIPOS>MOLECULE
*****
 26 29 0 0 0
SMALL
GASTEIGER

@<TRIPOS>ATOM
      1 C          62.1560   88.7653   10.9776 C.ar    1  UNL1        0.0537
      2 C          62.2652   89.9242   10.0316 C.ar    1  UNL1        0.0061
      3 C          63.1665   91.0776   10.3594 C.ar    1  UNL1        0.0193
      4 C          63.9587   91.0720   11.6330 C.ar    1  UNL1        0.0825
      5 C          63.8495   89.9130   12.5791 C.ar    1  UNL1        0.0193
      6 C          62.9482   88.7597   12.2514 C.ar    1  UNL1        0.0061
      7 N          64.8600   92.2254   11.9608 N.ar    1  UNL1       -0.2316
      8 N          65.1774   93.3806   11.0581 N.ar    1  UNL1       -0.1617
      9 C          66.1157   94.2951   11.7882 C.ar    1  UNL1        0.1698
     10 C          66.3783   93.7052   13.1421 C.ar    1  UNL1        0.0197
     11 C          65.6022   92.4260   13.2488 C.ar    1  UNL1        0.0878
     12 C          65.6716   91.6092   14.5049 C.3     1  UNL1        0.1872
     13 O          66.5171   92.0715   15.6544 O.3     1  UNL1       -0.3470
     14 C          67.2932   93.3507   15.5477 C.3     1  UNL1        0.1474
     15 C          67.2238   94.1675   14.2916 C.3     1  UNL1        0.0612
     16 C          66.6906   95.5749   11.2576 C.3     1  UNL1        0.4362
     17 F          67.2656   96.8547   10.7269 F       1  UNL1       -0.1644
     18 F          67.4813   94.8001   10.2454 F       1  UNL1       -0.1644
     19 F          65.9001   96.3497   12.2698 F       1  UNL1       -0.1644
     20 O          61.2204   86.4089   11.5451 O.2     1  UNL1       -0.2699
     21 C          61.2547   87.6119   10.6499 C.2     1  UNL1        0.2490
     22 N          60.3877   87.6617    9.4268 N.am    1  UNL1       -0.2761
     23 C          59.4410   86.5903    8.9730 C.3     1  UNL1        0.0938
     24 C          58.7834   87.0579    7.7086 C.3     1  UNL1        0.0233
     25 C          59.3236   88.4185    7.3809 C.3     1  UNL1        0.0233
     26 C          60.3151   88.7916    8.4428 C.3     1  UNL1        0.0938
@<TRIPOS>BOND
     1    20    21    2
     2    21     1    1
     3     1     2   ar
     4     2     3   ar
     5     3     4   ar
     6     4     7    1
     7     7     8   ar
     8     8     9   ar
     9     9    16    1
    10    16    17    1
    11    16    18    1
    12    16    19    1
    13     9    10   ar
    14    10    11   ar
    15    11    12    1
    16    12    13    1
    17    13    14    1
    18    14    15    1
    19     4     5   ar
    20     5     6   ar
    21    21    22   am
    22    22    23    1
    23    23    24    1
    24    24    25    1
    25    25    26    1
    26     6     1   ar
    27    26    22    1
    28    11     7   ar
    29    15    10    1
@<TRIPOS>MOLECULE
*****
 26 29 0 0 0
SMALL
GASTEIGER

@<TRIPOS>ATOM
      1 C          61.5248   88.3974   10.0639 C.ar    1  UNL1        0.0537
      2 C          61.7316   89.8278    9.6621 C.ar    1  UNL1        0.0061
      3 C          62.6534   90.7043   10.4570 C.ar    1  UNL1        0.0193
      4 C          63.3686   90.1506   11.6535 C.ar    1  UNL1        0.0825
      5 C          63.1619   88.7202   12.0553 C.ar    1  UNL1        0.0193
      6 C          62.2400   87.8437   11.2604 C.ar    1  UNL1        0.0061
      7 N          64.2905   91.0272   12.4484 N.ar    1  UNL1       -0.2316
      8 N          64.7286   90.7919   13.8635 N.ar    1  UNL1       -0.1617
      9 C          65.6450   91.9122   14.2573 C.ar    1  UNL1        0.1698
     10 C          65.7733   92.8399   13.0855 C.ar    1  UNL1        0.0197
     11 C          64.9362   92.2929   11.9675 C.ar    1  UNL1        0.0878
     12 C          64.8699   93.0179   10.6561 C.3     1  UNL1        0.1872
     13 O          65.6408   94.2900   10.4627 O.3     1  UNL1       -0.3470
     14 C          66.4780   94.8370   11.5808 C.3     1  UNL1        0.1474
     15 C          66.5442   94.1120   12.8922 C.3     1  UNL1        0.0612
     16 C          66.3155   92.0762   15.5891 C.3     1  UNL1        0.4362
     17 F          66.9860   92.2401   16.9209 F       1  UNL1       -0.1644
     18 F          67.6353   91.7273   14.9676 F       1  UNL1       -0.1644
     19 F          64.9957   92.4251   16.2106 F       1  UNL1       -0.1644
     20 O          59.1209   87.7456    9.3247 O.2     1  UNL1       -0.2699
     21 C          60.6029   87.5209    9.2690 C.2     1  UNL1        0.2490
     22 N          61.1631   86.4196    8.4185 N.am    1  UNL1       -0.2761
     23 C          60.3696   85.4678    7.5733 C.3     1  UNL1        0.0938
     24 C          61.3311   84.5367    6.8963 C.3     1  UNL1        0.0233
     25 C          62.7191   84.9131    7.3231 C.3     1  UNL1        0.0233
     26 C          62.6153   86.0767    8.2638 C.3     1  UNL1        0.0938
@<TRIPOS>BOND
     1    20    21    2
     2    21     1    1
     3     1     2   ar
     4     2     3   ar
     5     3     4   ar
     6     4     7    1
     7     7     8   ar
     8     8     9   ar
     9     9    16    1
    10    16    17    1
    11    16    18    1
    12    16    19    1
    13     9    10   ar
    14    10    11   ar
    15    11    12    1
    16    12    13    1
    17    13    14    1
    18    14    15    1
    19     4     5   ar
    20     5     6   ar
    21    21    22   am
    22    22    23    1
    23    23    24    1
    24    24    25    1
    25    25    26    1
    26     6     1   ar
    27    26    22    1
    28    11     7   ar
    29    15    10    1
@<TRIPOS>MOLECULE
*****
 26 29 0 0 0
SMALL
GASTEIGER

@<TRIPOS>ATOM
      1 C          62.1330   88.1356   10.8004 C.ar    1  UNL1        0.0537
      2 C          62.7625   87.8414   12.1298 C.ar    1  UNL1        0.0061
      3 C          63.6417   88.8643   12.7860 C.ar    1  UNL1        0.0193
      4 C          63.8915   90.1813   12.1130 C.ar    1  UNL1        0.0825
      5 C          63.2619   90.4755   10.7836 C.ar    1  UNL1        0.0193
      6 C          62.3827   89.4526   10.1274 C.ar    1  UNL1        0.0061
      7 N          64.7707   91.2042   12.7693 N.ar    1  UNL1       -0.2316
      8 N          65.3805   91.0965   14.1355 N.ar    1  UNL1       -0.1617
      9 C          66.1811   92.3401   14.3850 C.ar    1  UNL1        0.1698
     10 C          66.0662   93.2164   13.1731 C.ar    1  UNL1        0.0197
     11 C          65.1945   92.5144   12.1745 C.ar    1  UNL1        0.0878
     12 C          64.8992   93.1589   10.8526 C.3     1  UNL1        0.1872
     13 O          65.4757   94.5054   10.5293 O.3     1  UNL1       -0.3470
     14 C          66.3474   95.2074   11.5279 C.3     1  UNL1        0.1474
     15 C          66.6427   94.5630   12.8498 C.3     1  UNL1        0.0612
     16 C          66.9600   92.6526   15.6283 C.3     1  UNL1        0.4362
     17 F          67.7389   92.9651   16.8716 F       1  UNL1       -0.1644
     18 F          65.6865   92.6750   16.4205 F       1  UNL1       -0.1644
     19 F          68.2335   92.6301   14.8361 F       1  UNL1       -0.1644
     20 O          61.2691   85.6916   10.6242 O.2     1  UNL1       -0.2699
     21 C          61.2537   87.1127   10.1442 C.2     1  UNL1        0.2490
     22 N          60.3591   87.5109    9.0080 N.am    1  UNL1       -0.2761
     23 C          59.4297   86.6034    8.2577 C.3     1  UNL1        0.0938
     24 C          58.7330   87.4181    7.2085 C.3     1  UNL1        0.0233
     25 C          59.2318   88.8292    7.3103 C.3     1  UNL1        0.0233
     26 C          60.2367   88.8865    8.4224 C.3     1  UNL1        0.0938
@<TRIPOS>BOND
     1    20    21    2
     2    21     1    1
     3     1     2   ar
     4     2     3   ar
     5     3     4   ar
     6     4     7    1
     7     7     8   ar
     8     8     9   ar
     9     9    16    1
    10    16    17    1
    11    16    18    1
    12    16    19    1
    13     9    10   ar
    14    10    11   ar
    15    11    12    1
    16    12    13    1
    17    13    14    1
    18    14    15    1
    19     4     5   ar
    20     5     6   ar
    21    21    22   am
    22    22    23    1
    23    23    24    1
    24    24    25    1
    25    25    26    1
    26     6     1   ar
    27    26    22    1
    28    11     7   ar
    29    15    10    1
@<TRIPOS>MOLECULE
*****
 26 29 0 0 0
SMALL
GASTEIGER

@<TRIPOS>ATOM
      1 C          64.6213   91.1761   14.5276 C.ar    1  UNL1        0.0537
      2 C          64.1944   89.7745   14.8489 C.ar    1  UNL1        0.0061
      3 C          63.4366   88.9702   13.8346 C.ar    1  UNL1        0.0193
      4 C          63.1056   89.5674   12.4991 C.ar    1  UNL1        0.0825
      5 C          63.5324   90.9691   12.1778 C.ar    1  UNL1        0.0193
      6 C          64.2903   91.7734   13.1921 C.ar    1  UNL1        0.0061
      7 N          62.3478   88.7631   11.4848 N.ar    1  UNL1       -0.2316
      8 N          61.3983   89.3071   10.4589 N.ar    1  UNL1       -0.1617
      9 C          60.8701   88.1537    9.6584 C.ar    1  UNL1        0.1698
     10 C          61.4931   86.8969   10.1897 C.ar    1  UNL1        0.0197
     11 C          62.4064   87.2735   11.3184 C.ar    1  UNL1        0.0878
     12 C          63.1733   86.2114   12.0489 C.3     1  UNL1        0.1872
     13 O          63.0270   84.7727   11.6507 O.3     1  UNL1       -0.3470
     14 C          62.1138   84.3961   10.5219 C.3     1  UNL1        0.1474
     15 C          61.3468   85.4582    9.7914 C.3     1  UNL1        0.0612
     16 C          59.8909   88.2417    8.5256 C.3     1  UNL1        0.4362
     17 F          58.9116   88.3298    7.3927 F       1  UNL1       -0.1644
     18 F          60.5878   89.4694    8.0185 F       1  UNL1       -0.1644
     19 F          59.1940   87.0141    9.0326 F       1  UNL1       -0.1644
     20 O          64.6841   92.4812   16.7733 O.2     1  UNL1       -0.2699
     21 C          65.3791   91.9805   15.5419 C.2     1  UNL1        0.2490
     22 N          66.8319   92.2840   15.3248 N.am    1  UNL1       -0.2761
     23 C          67.7153   93.0720   16.2461 C.3     1  UNL1        0.0938
     24 C          69.0858   93.1278   15.6391 C.3     1  UNL1        0.0233
     25 C          69.0495   92.3743   14.3425 C.3     1  UNL1        0.0233
     26 C          67.6566   91.8528   14.1483 C.3     1  UNL1        0.0938
@<TRIPOS>BOND
     1    20    21    2
     2    21     1    1
     3     1     2   ar
     4     2     3   ar
     5     3     4   ar
     6     4     7    1
     7     7     8   ar
     8     8     9   ar
     9     9    16    1
    10    16    17    1
    11    16    18    1
    12    16    19    1
    13     9    10   ar
    14    10    11   ar
    15    11    12    1
    16    12    13    1
    17    13    14    1
    18    14    15    1
    19     4     5   ar
    20     5     6   ar
    21    21    22   am
    22    22    23    1
    23    23    24    1
    24    24    25    1
    25    25    26    1
    26     6     1   ar
    27    26    22    1
    28    11     7   ar
    29    15    10    1
@<TRIPOS>MOLECULE
*****
 26 29 0 0 0
SMALL
GASTEIGER

@<TRIPOS>ATOM
      1 C          64.0630   90.5930   14.0671 C.ar    1  UNL1        0.0537
      2 C          64.0199   89.0937   14.0854 C.ar    1  UNL1        0.0061
      3 C          63.4566   88.3453   12.9139 C.ar    1  UNL1        0.0193
      4 C          62.9364   89.0959   11.7241 C.ar    1  UNL1        0.0825
      5 C          62.9795   90.5953   11.7058 C.ar    1  UNL1        0.0193
      6 C          63.5428   91.3438   12.8773 C.ar    1  UNL1        0.0061
      7 N          62.3730   88.3474   10.5526 N.ar    1  UNL1       -0.2316
      8 N          62.8376   87.0112   10.0541 N.ar    1  UNL1       -0.1617
      9 C          61.9979   86.6417    8.8673 C.ar    1  UNL1        0.1698
     10 C          61.0144   87.7497    8.6323 C.ar    1  UNL1        0.0197
     11 C          61.2463   88.8039    9.6739 C.ar    1  UNL1        0.0878
     12 C          60.4015   90.0433    9.6877 C.3     1  UNL1        0.1872
     13 O          59.3248   90.2284    8.6599 O.3     1  UNL1       -0.3470
     14 C          59.0929   89.1742    7.6183 C.3     1  UNL1        0.1474
     15 C          59.9377   87.9349    7.6045 C.3     1  UNL1        0.0612
     16 C          62.1201   85.3850    8.0576 C.3     1  UNL1        0.4362
     17 F          62.2425   84.1282    7.2479 F       1  UNL1       -0.1644
     18 F          63.6149   85.4716    8.1489 F       1  UNL1       -0.1644
     19 F          60.6255   85.2983    7.9663 F       1  UNL1       -0.1644
     20 O          63.7736   91.5965   16.4460 O.2     1  UNL1       -0.2699
     21 C          64.6263   91.3415   15.2386 C.2     1  UNL1        0.2490
     22 N          66.0424   91.8349   15.2027 N.am    1  UNL1       -0.2761
     23 C          66.7396   92.5937   16.2928 C.3     1  UNL1        0.0938
     24 C          68.1379   92.8840   15.8342 C.3     1  UNL1        0.0233
     25 C          68.3050   92.3046   14.4606 C.3     1  UNL1        0.0233
     26 C          67.0099   91.6563   14.0704 C.3     1  UNL1        0.0938
@<TRIPOS>BOND
     1    20    21    2
     2    21     1    1
     3     1     2   ar
     4     2     3   ar
     5     3     4   ar
     6     4     7    1
     7     7     8   ar
     8     8     9   ar
     9     9    16    1
    10    16    17    1
    11    16    18    1
    12    16    19    1
    13     9    10   ar
    14    10    11   ar
    15    11    12    1
    16    12    13    1
    17    13    14    1
    18    14    15    1
    19     4     5   ar
    20     5     6   ar
    21    21    22   am
    22    22    23    1
    23    23    24    1
    24    24    25    1
    25    25    26    1
    26     6     1   ar
    27    26    22    1
    28    11     7   ar
    29    15    10    1
@<TRIPOS>MOLECULE
*****
 26 29 0 0 0
SMALL
GASTEIGER

@<TRIPOS>ATOM
      1 C          63.0506   83.4851   13.5884 C.ar    1  UNL1        0.0537
      2 C          63.8555   84.1199   14.6835 C.ar    1  UNL1        0.0061
      3 C          64.1227   85.5957   14.6588 C.ar    1  UNL1        0.0193
      4 C          63.5852   86.4368   13.5392 C.ar    1  UNL1        0.0825
      5 C          62.7802   85.8019   12.4441 C.ar    1  UNL1        0.0193
      6 C          62.5130   84.3261   12.4687 C.ar    1  UNL1        0.0061
      7 N          63.8524   87.9126   13.5146 N.ar    1  UNL1       -0.2316
      8 N          64.5818   88.6942   14.5668 N.ar    1  UNL1       -0.1617
      9 C          64.6173   90.1305   14.1359 C.ar    1  UNL1        0.1698
     10 C          63.9100   90.2366   12.8174 C.ar    1  UNL1        0.0197
     11 C          63.4372   88.8658   12.4334 C.ar    1  UNL1        0.0878
     12 C          62.6898   88.6627   11.1489 C.3     1  UNL1        0.1872
     13 O          62.4151   89.8304   10.2484 O.3     1  UNL1       -0.3470
     14 C          62.8878   91.2012   10.6324 C.3     1  UNL1        0.1474
     15 C          63.6353   91.4043   11.9169 C.3     1  UNL1        0.0612
     16 C          65.2493   91.2621   14.8909 C.3     1  UNL1        0.4362
     17 F          65.8812   92.3938   15.6460 F       1  UNL1       -0.1644
     18 F          64.1063   91.2523   15.8623 F       1  UNL1       -0.1644
     19 F          66.3922   91.2719   13.9196 F       1  UNL1       -0.1644
     20 O          62.4133   81.3355   14.9011 O.2     1  UNL1       -0.2699
     21 C          62.7833   82.0093   13.6130 C.2     1  UNL1        0.2490
     22 N          62.8861   81.2074   12.3496 N.am    1  UNL1       -0.2761
     23 C          62.6489   79.7319   12.2200 C.3     1  UNL1        0.0938
     24 C          62.8603   79.3527   10.7843 C.3     1  UNL1        0.0233
     25 C          63.2283   80.5938   10.0264 C.3     1  UNL1        0.0233
     26 C          63.2442   81.7401   10.9938 C.3     1  UNL1        0.0938
@<TRIPOS>BOND
     1    20    21    2
     2    21     1    1
     3     1     2   ar
     4     2     3   ar
     5     3     4   ar
     6     4     7    1
     7     7     8   ar
     8     8     9   ar
     9     9    16    1
    10    16    17    1
    11    16    18    1
    12    16    19    1
    13     9    10   ar
    14    10    11   ar
    15    11    12    1
    16    12    13    1
    17    13    14    1
    18    14    15    1
    19     4     5   ar
    20     5     6   ar
    21    21    22   am
    22    22    23    1
    23    23    24    1
    24    24    25    1
    25    25    26    1
    26     6     1   ar
    27    26    22    1
    28    11     7   ar
    29    15    10    1
@<TRIPOS>MOLECULE
*****
 26 29 0 0 0
SMALL
GASTEIGER

@<TRIPOS>ATOM
      1 C          61.9456   88.9282   10.4339 C.ar    1  UNL1        0.0537
      2 C          62.8246   88.7532   11.6366 C.ar    1  UNL1        0.0061
      3 C          63.7475   89.8579   12.0582 C.ar    1  UNL1        0.0193
      4 C          63.7915   91.1376   11.2772 C.ar    1  UNL1        0.0825
      5 C          62.9125   91.3127   10.0743 C.ar    1  UNL1        0.0193
      6 C          61.9895   90.2079    9.6527 C.ar    1  UNL1        0.0061
      7 N          64.7145   92.2424   11.6988 N.ar    1  UNL1       -0.2316
      8 N          65.1191   93.4204   10.8630 N.ar    1  UNL1       -0.1617
      9 C          66.0495   94.2691   11.6779 C.ar    1  UNL1        0.1698
     10 C          66.2199   93.6156   13.0173 C.ar    1  UNL1        0.0197
     11 C          65.3948   92.3630   13.0302 C.ar    1  UNL1        0.0878
     12 C          65.3695   91.4941   14.2526 C.3     1  UNL1        0.1872
     13 O          66.1694   91.8778   15.4621 O.3     1  UNL1       -0.3470
     14 C          66.9945   93.1304   15.4492 C.3     1  UNL1        0.1474
     15 C          67.0198   93.9993   14.2268 C.3     1  UNL1        0.0612
     16 C          66.6961   95.5469   11.2317 C.3     1  UNL1        0.4362
     17 F          67.3427   96.8248   10.7855 F       1  UNL1       -0.1644
     18 F          67.5110   94.7846   10.2294 F       1  UNL1       -0.1644
     19 F          65.8812   96.3092   12.2341 F       1  UNL1       -0.1644
     20 O          59.5793   87.8555   10.4194 O.2     1  UNL1       -0.2699
     21 C          61.0226   87.8234   10.0123 C.2     1  UNL1        0.2490
     22 N          61.5431   86.6867    9.1835 N.am    1  UNL1       -0.2761
     23 C          60.7437   85.5174    8.6896 C.3     1  UNL1        0.0938
     24 C          61.6608   84.6276    7.9040 C.3     1  UNL1        0.0233
     25 C          63.0270   85.2470    7.9123 C.3     1  UNL1        0.0233
     26 C          62.9543   86.5195    8.7031 C.3     1  UNL1        0.0938
@<TRIPOS>BOND
     1    20    21    2
     2    21     1    1
     3     1     2   ar
     4     2     3   ar
     5     3     4   ar
     6     4     7    1
     7     7     8   ar
     8     8     9   ar
     9     9    16    1
    10    16    17    1
    11    16    18    1
    12    16    19    1
    13     9    10   ar
    14    10    11   ar
    15    11    12    1
    16    12    13    1
    17    13    14    1
    18    14    15    1
    19     4     5   ar
    20     5     6   ar
    21    21    22   am
    22    22    23    1
    23    23    24    1
    24    24    25    1
    25    25    26    1
    26     6     1   ar
    27    26    22    1
    28    11     7   ar
    29    15    10    1
