@<TRIPOS>MOLECULE
*****
 30 32 0 0 0
SMALL
GASTEIGER

@<TRIPOS>ATOM
      1 N          62.3989   89.0668   12.5916 N.am    1  UNL1       -0.2658
      2 C          62.0171   88.5650   11.2306 C.2     1  UNL1        0.3082
      3 O          62.6570   89.1526   10.0078 O.2     1  UNL1       -0.2521
      4 N          60.9953   87.4756   11.0923 N.am    1  UNL1       -0.2680
      5 H          61.9789   88.6811   13.3942 H       1  UNL1        0.1565
      6 H          60.5752   87.0899   11.8949 H       1  UNL1        0.1564
      7 C          64.2381   90.2632   13.9830 C.ar    1  UNL1        0.1040
      8 C          63.4207   90.1562   12.7298 C.ar    1  UNL1        0.0871
      9 C          63.6251   91.1386   11.6150 C.ar    1  UNL1        0.1165
     10 N          64.6470   92.2281   11.7532 N.ar    1  UNL1       -0.2236
     11 C          65.4644   92.3350   13.0064 C.ar    1  UNL1        0.1660
     12 C          66.5374   93.2955   13.4258 C.ar    1  UNL1        0.0713
     13 C          66.9962   92.9066   14.8000 C.ar    1  UNL1        0.1613
     14 CL         68.0581   93.5973   15.6033 Cl      1  UNL1       -0.0594
     15 N          66.2067   91.7058   15.2298 N.ar    1  UNL1       -0.1523
     16 N          65.2599   91.3525   14.1213 N.ar    1  UNL1       -0.2118
     17 C          64.0337   89.2807   15.0979 C.3     1  UNL1        0.1564
     18 C          63.3626   89.7154   16.3670 C.3     1  UNL1        0.0387
     19 C          63.8645   86.7722   15.7527 C.3     1  UNL1        0.1745
     20 O          64.5004   87.8634   14.9437 O.3     1  UNL1       -0.3476
     21 C          60.6134   86.9738    9.7312 C.ar    1  UNL1        0.0546
     22 C          59.2600   87.2904    9.1677 C.ar    1  UNL1        0.0354
     23 C          58.8781   86.7886    7.8067 C.ar    1  UNL1        0.1000
     24 N          59.8499   85.9702    7.0092 N.ar    1  UNL1       -0.2398
     25 C          61.2034   85.6536    7.5728 C.ar    1  UNL1        0.1539
     26 C          61.5853   86.1554    8.9339 C.ar    1  UNL1        0.0378
     27 C          62.1752   84.8352    6.7753 C.3     1  UNL1        0.4349
     28 F          63.1469   84.0168    5.9779 F       1  UNL1       -0.1644
     29 F          63.3019   85.3470    7.6230 F       1  UNL1       -0.1644
     30 F          61.0484   84.3233    5.9277 F       1  UNL1       -0.1644
@<TRIPOS>BOND
     1    19    20    1
     2    20    17    1
     3    17    18    1
     4    17     7    1
     5     7     8   ar
     6     8     1    1
     7     1     2   am
     8     2     3    2
     9     2     4   am
    10     4    21    1
    11    21    22   ar
    12    22    23   ar
    13    23    24   ar
    14    24    25   ar
    15    25    27    1
    16    27    28    1
    17    27    29    1
    18    27    30    1
    19    25    26   ar
    20     8     9   ar
    21     9    10   ar
    22    10    11   ar
    23    11    12   ar
    24    12    13   ar
    25    13    14    1
    26    13    15   ar
    27    15    16   ar
    28    16     7   ar
    29    26    21   ar
    30    16    11   ar
    31     1     5    1
    32     4     6    1
@<TRIPOS>MOLECULE
*****
 30 32 0 0 0
SMALL
GASTEIGER

@<TRIPOS>ATOM
      1 N          63.4286   91.5988   11.4370 N.am    1  UNL1       -0.2658
      2 C          62.9018   90.2397   11.0832 C.2     1  UNL1        0.3082
      3 O          63.2117   89.0633   11.9610 O.2     1  UNL1       -0.2521
      4 N          62.0652   90.0567    9.8518 N.am    1  UNL1       -0.2680
      5 H          63.2252   92.3709   10.8609 H       1  UNL1        0.1565
      6 H          61.8618   90.8287    9.2757 H       1  UNL1        0.1564
      7 C          65.5700   92.5171   12.5863 C.ar    1  UNL1        0.1040
      8 C          64.2652   91.7817   12.6685 C.ar    1  UNL1        0.0871
      9 C          63.7971   91.2294   13.9821 C.ar    1  UNL1        0.1165
     10 N          64.6338   91.4123   15.2137 N.ar    1  UNL1       -0.2236
     11 C          65.9386   92.1476   15.1314 C.ar    1  UNL1        0.1660
     12 C          66.9698   92.4811   16.1685 C.ar    1  UNL1        0.0713
     13 C          68.0752   93.2396   15.4957 C.ar    1  UNL1        0.1613
     14 CL         69.3116   93.7697   16.1592 Cl      1  UNL1       -0.0594
     15 N          67.7272   93.3749   14.0429 N.ar    1  UNL1       -0.1523
     16 N          66.4067   92.7000   13.8178 N.ar    1  UNL1       -0.2118
     17 C          66.0382   93.0695   11.2726 C.3     1  UNL1        0.1564
     18 C          67.1807   92.4195   10.5501 C.3     1  UNL1        0.0387
     19 C          65.9592   95.6353   10.8721 C.3     1  UNL1        0.1745
     20 O          65.3637   94.2719   10.6815 O.3     1  UNL1       -0.3476
     21 C          61.5384   88.6974    9.4980 C.ar    1  UNL1        0.0546
     22 C          60.1024   88.5303    9.0983 C.ar    1  UNL1        0.0354
     23 C          59.5757   87.1711    8.7446 C.ar    1  UNL1        0.1000
     24 N          60.4850   85.9791    8.7905 N.ar    1  UNL1       -0.2398
     25 C          61.9211   86.1462    9.1902 C.ar    1  UNL1        0.1539
     26 C          62.4479   87.5055    9.5440 C.ar    1  UNL1        0.0378
     27 C          62.8305   84.9542    9.2361 C.3     1  UNL1        0.4349
     28 F          63.7398   83.7621    9.2821 F       1  UNL1       -0.1644
     29 F          62.4723   84.7365   10.6764 F       1  UNL1       -0.1644
     30 F          63.1886   85.1719    7.7958 F       1  UNL1       -0.1644
@<TRIPOS>BOND
     1    19    20    1
     2    20    17    1
     3    17    18    1
     4    17     7    1
     5     7     8   ar
     6     8     1    1
     7     1     2   am
     8     2     3    2
     9     2     4   am
    10     4    21    1
    11    21    22   ar
    12    22    23   ar
    13    23    24   ar
    14    24    25   ar
    15    25    27    1
    16    27    28    1
    17    27    29    1
    18    27    30    1
    19    25    26   ar
    20     8     9   ar
    21     9    10   ar
    22    10    11   ar
    23    11    12   ar
    24    12    13   ar
    25    13    14    1
    26    13    15   ar
    27    15    16   ar
    28    16     7   ar
    29    26    21   ar
    30    16    11   ar
    31     1     5    1
    32     4     6    1
@<TRIPOS>MOLECULE
*****
 30 32 0 0 0
SMALL
GASTEIGER

@<TRIPOS>ATOM
      1 N          63.4777   87.3655   13.0235 N.am    1  UNL1       -0.2658
      2 C          64.1261   88.3273   13.9745 C.2     1  UNL1        0.3082
      3 O          64.8548   87.8131   15.1807 O.2     1  UNL1       -0.2521
      4 N          64.0459   89.8032   13.7195 N.am    1  UNL1       -0.2680
      5 H          62.9994   87.7030   12.2319 H       1  UNL1        0.1565
      6 H          63.5677   90.1407   12.9279 H       1  UNL1        0.1564
      7 C          62.9183   84.9273   12.3220 C.ar    1  UNL1        0.1040
      8 C          63.5579   85.8895   13.2786 C.ar    1  UNL1        0.0871
      9 C          64.2777   85.3758   14.4901 C.ar    1  UNL1        0.1165
     10 N          64.3579   83.8998   14.7452 N.ar    1  UNL1       -0.2236
     11 C          63.7183   82.9375   13.7886 C.ar    1  UNL1        0.1660
     12 C          63.6336   81.4400   13.7779 C.ar    1  UNL1        0.0713
     13 C          62.8615   81.0282   12.5596 C.ar    1  UNL1        0.1613
     14 CL         62.5385   79.6205   12.1545 Cl      1  UNL1       -0.0594
     15 N          62.4690   82.2712   11.8174 N.ar    1  UNL1       -0.1523
     16 N          62.9985   83.4513   12.5770 N.ar    1  UNL1       -0.2118
     17 C          62.1986   85.4410   11.1104 C.3     1  UNL1        0.1564
     18 C          62.7045   85.1050    9.7388 C.3     1  UNL1        0.0387
     19 C          60.7874   87.5083   10.4141 C.3     1  UNL1        0.1745
     20 O          60.9728   86.2909   11.2703 O.3     1  UNL1       -0.3476
     21 C          64.6944   90.7651   14.6706 C.ar    1  UNL1        0.0546
     22 C          63.9491   91.2380   15.8833 C.ar    1  UNL1        0.0354
     23 C          64.5976   92.1998   16.8344 C.ar    1  UNL1        0.1000
     24 N          65.9913   92.6886   16.5727 N.ar    1  UNL1       -0.2398
     25 C          66.7366   92.2156   15.3599 C.ar    1  UNL1        0.1539
     26 C          66.0882   91.2538   14.4088 C.ar    1  UNL1        0.0378
     27 C          68.1304   92.7044   15.0982 C.3     1  UNL1        0.4349
     28 F          69.5241   93.1933   14.8365 F       1  UNL1       -0.1644
     29 F          68.2808   91.6897   14.0038 F       1  UNL1       -0.1644
     30 F          67.9799   93.7192   16.1926 F       1  UNL1       -0.1644
@<TRIPOS>BOND
     1    19    20    1
     2    20    17    1
     3    17    18    1
     4    17     7    1
     5     7     8   ar
     6     8     1    1
     7     1     2   am
     8     2     3    2
     9     2     4   am
    10     4    21    1
    11    21    22   ar
    12    22    23   ar
    13    23    24   ar
    14    24    25   ar
    15    25    27    1
    16    27    28    1
    17    27    29    1
    18    27    30    1
    19    25    26   ar
    20     8     9   ar
    21     9    10   ar
    22    10    11   ar
    23    11    12   ar
    24    12    13   ar
    25    13    14    1
    26    13    15   ar
    27    15    16   ar
    28    16     7   ar
    29    26    21   ar
    30    16    11   ar
    31     1     5    1
    32     4     6    1
@<TRIPOS>MOLECULE
*****
 30 32 0 0 0
SMALL
GASTEIGER

@<TRIPOS>ATOM
      1 N          62.2938   89.8089   12.5799 N.am    1  UNL1       -0.2658
      2 C          61.8928   89.3850   11.1980 C.2     1  UNL1        0.3082
      3 O          62.7315   89.7807   10.0190 O.2     1  UNL1       -0.2521
      4 N          60.6530   88.5654   10.9952 N.am    1  UNL1       -0.2680
      5 H          61.7433   89.5492   13.3537 H       1  UNL1        0.1565
      6 H          60.1025   88.3057   11.7690 H       1  UNL1        0.1564
      7 C          64.4310   90.3541   13.9528 C.ar    1  UNL1        0.1040
      8 C          63.5336   90.6286   12.7827 C.ar    1  UNL1        0.0871
      9 C          63.8760   91.7226   11.8154 C.ar    1  UNL1        0.1165
     10 N          65.1159   92.5423   12.0182 N.ar    1  UNL1       -0.2236
     11 C          66.0133   92.2678   13.1884 C.ar    1  UNL1        0.1660
     12 C          67.2926   92.9052   13.6433 C.ar    1  UNL1        0.0713
     13 C          67.7408   92.2050   14.8918 C.ar    1  UNL1        0.1613
     14 CL         68.9747   92.5197   15.6846 Cl      1  UNL1       -0.0594
     15 N          66.7385   91.1349   15.2085 N.ar    1  UNL1       -0.1523
     16 N          65.6708   91.1737   14.1557 N.ar    1  UNL1       -0.2118
     17 C          64.0886   89.2600   14.9202 C.3     1  UNL1        0.1564
     18 C          64.4499   87.8390   14.6038 C.3     1  UNL1        0.0387
     19 C          62.9824   88.4863   17.1401 C.3     1  UNL1        0.1745
     20 O          63.3849   89.5870   16.2040 O.3     1  UNL1       -0.3476
     21 C          60.2519   88.1414    9.6133 C.ar    1  UNL1        0.0546
     22 C          60.2707   86.6890    9.2393 C.ar    1  UNL1        0.0354
     23 C          59.8697   86.2651    7.8575 C.ar    1  UNL1        0.1000
     24 N          59.4498   87.2936    6.8497 N.ar    1  UNL1       -0.2398
     25 C          59.4310   88.7461    7.2237 C.ar    1  UNL1        0.1539
     26 C          59.8320   89.1701    8.6056 C.ar    1  UNL1        0.0378
     27 C          59.0111   89.7747    6.2158 C.3     1  UNL1        0.4349
     28 F          58.5912   90.8033    5.2080 F       1  UNL1       -0.1644
     29 F          57.5734   89.5353    6.5705 F       1  UNL1       -0.1644
     30 F          60.4488   90.0141    5.8612 F       1  UNL1       -0.1644
@<TRIPOS>BOND
     1    19    20    1
     2    20    17    1
     3    17    18    1
     4    17     7    1
     5     7     8   ar
     6     8     1    1
     7     1     2   am
     8     2     3    2
     9     2     4   am
    10     4    21    1
    11    21    22   ar
    12    22    23   ar
    13    23    24   ar
    14    24    25   ar
    15    25    27    1
    16    27    28    1
    17    27    29    1
    18    27    30    1
    19    25    26   ar
    20     8     9   ar
    21     9    10   ar
    22    10    11   ar
    23    11    12   ar
    24    12    13   ar
    25    13    14    1
    26    13    15   ar
    27    15    16   ar
    28    16     7   ar
    29    26    21   ar
    30    16    11   ar
    31     1     5    1
    32     4     6    1
@<TRIPOS>MOLECULE
*****
 30 32 0 0 0
SMALL
GASTEIGER

@<TRIPOS>ATOM
      1 N          63.5356   91.1048   11.9299 N.am    1  UNL1       -0.2658
      2 C          63.2533   89.6491   11.7036 C.2     1  UNL1        0.3082
      3 O          63.8007   88.6227   12.6506 O.2     1  UNL1       -0.2521
      4 N          62.4234   89.2197   10.5301 N.am    1  UNL1       -0.2680
      5 H          63.1763   91.7784   11.3083 H       1  UNL1        0.1565
      6 H          62.0641   89.8933    9.9085 H       1  UNL1        0.1564
      7 C          65.6441   92.2867   12.8824 C.ar    1  UNL1        0.1040
      8 C          64.3655   91.5341   13.1034 C.ar    1  UNL1        0.0871
      9 C          63.9168   91.2109   14.4977 C.ar    1  UNL1        0.1165
     10 N          64.7467   91.6403   15.6712 N.ar    1  UNL1       -0.2236
     11 C          66.0253   92.3928   15.4502 C.ar    1  UNL1        0.1660
     12 C          67.0444   92.9419   16.4041 C.ar    1  UNL1        0.0713
     13 C          68.1230   93.6045   15.5993 C.ar    1  UNL1        0.1613
     14 CL         69.3403   94.2869   16.1492 Cl      1  UNL1       -0.0594
     15 N          67.7705   93.4649   14.1480 N.ar    1  UNL1       -0.1523
     16 N          66.4740   92.7160   14.0559 N.ar    1  UNL1       -0.2118
     17 C          66.0928   92.6099   11.4881 C.3     1  UNL1        0.1564
     18 C          67.3571   92.0092   10.9489 C.3     1  UNL1        0.0387
     19 C          65.5983   94.9984   10.5934 C.3     1  UNL1        0.1745
     20 O          65.2771   93.5338   10.6329 O.3     1  UNL1       -0.3476
     21 C          62.1410   87.7639   10.3038 C.ar    1  UNL1        0.0546
     22 C          61.9645   86.8433   11.4747 C.ar    1  UNL1        0.0354
     23 C          61.6821   85.3876   11.2484 C.ar    1  UNL1        0.1000
     24 N          61.5762   84.8526    9.8510 N.ar    1  UNL1       -0.2398
     25 C          61.7528   85.7733    8.6800 C.ar    1  UNL1        0.1539
     26 C          62.0352   87.2291    8.9064 C.ar    1  UNL1        0.0378
     27 C          61.6469   85.2383    7.2827 C.3     1  UNL1        0.4349
     28 F          61.5410   84.7032    5.8854 F       1  UNL1       -0.1644
     29 F          60.1858   85.5773    7.2636 F       1  UNL1       -0.1644
     30 F          63.1080   84.8993    7.3019 F       1  UNL1       -0.1644
@<TRIPOS>BOND
     1    19    20    1
     2    20    17    1
     3    17    18    1
     4    17     7    1
     5     7     8   ar
     6     8     1    1
     7     1     2   am
     8     2     3    2
     9     2     4   am
    10     4    21    1
    11    21    22   ar
    12    22    23   ar
    13    23    24   ar
    14    24    25   ar
    15    25    27    1
    16    27    28    1
    17    27    29    1
    18    27    30    1
    19    25    26   ar
    20     8     9   ar
    21     9    10   ar
    22    10    11   ar
    23    11    12   ar
    24    12    13   ar
    25    13    14    1
    26    13    15   ar
    27    15    16   ar
    28    16     7   ar
    29    26    21   ar
    30    16    11   ar
    31     1     5    1
    32     4     6    1
@<TRIPOS>MOLECULE
*****
 30 32 0 0 0
SMALL
GASTEIGER

@<TRIPOS>ATOM
      1 N          62.8236   87.3022   12.2729 N.am    1  UNL1       -0.2658
      2 C          63.6341   88.3734   12.9404 C.2     1  UNL1        0.3082
      3 O          64.5405   88.0254   14.0838 O.2     1  UNL1       -0.2521
      4 N          63.5381   89.7927   12.4646 N.am    1  UNL1       -0.2680
      5 H          62.2287   87.5306   11.5224 H       1  UNL1        0.1565
      6 H          62.9432   90.0211   11.7142 H       1  UNL1        0.1564
      7 C          62.6674   84.7533   11.7946 C.ar    1  UNL1        0.1040
      8 C          62.9196   85.8829   12.7488 C.ar    1  UNL1        0.0871
      9 C          63.2678   85.5932   14.1786 C.ar    1  UNL1        0.1165
     10 N          63.3639   84.1739   14.6545 N.ar    1  UNL1       -0.2236
     11 C          63.1116   83.0443   13.7004 C.ar    1  UNL1        0.1660
     12 C          63.1334   81.5552   13.8796 C.ar    1  UNL1        0.0713
     13 C          62.7987   80.9246   12.5604 C.ar    1  UNL1        0.1613
     14 CL         62.7084   79.4530   12.2843 Cl      1  UNL1       -0.0594
     15 N          62.5699   82.0240   11.5659 N.ar    1  UNL1       -0.1523
     16 N          62.7634   83.3340   12.2704 N.ar    1  UNL1       -0.2118
     17 C          62.3191   85.0430   10.3646 C.3     1  UNL1        0.1564
     18 C          63.2266   84.5810    9.2633 C.3     1  UNL1        0.0387
     19 C          61.1078   86.9458    9.0753 C.3     1  UNL1        0.1745
     20 O          61.0633   85.7948   10.0360 O.3     1  UNL1       -0.3476
     21 C          64.3486   90.8640   13.1322 C.ar    1  UNL1        0.0546
     22 C          64.5842   90.8133   14.6126 C.ar    1  UNL1        0.0354
     23 C          65.3947   91.8846   15.2801 C.ar    1  UNL1        0.1000
     24 N          65.9694   93.0065   14.4672 N.ar    1  UNL1       -0.2398
     25 C          65.7338   93.0572   12.9867 C.ar    1  UNL1        0.1539
     26 C          64.9233   91.9859   12.3191 C.ar    1  UNL1        0.0378
     27 C          66.3086   94.1791   12.1737 C.3     1  UNL1        0.4349
     28 F          66.8834   95.3010   11.3607 F       1  UNL1       -0.1644
     29 F          66.5125   94.9812   13.4247 F       1  UNL1       -0.1644
     30 F          66.1047   93.3769   10.9227 F       1  UNL1       -0.1644
@<TRIPOS>BOND
     1    19    20    1
     2    20    17    1
     3    17    18    1
     4    17     7    1
     5     7     8   ar
     6     8     1    1
     7     1     2   am
     8     2     3    2
     9     2     4   am
    10     4    21    1
    11    21    22   ar
    12    22    23   ar
    13    23    24   ar
    14    24    25   ar
    15    25    27    1
    16    27    28    1
    17    27    29    1
    18    27    30    1
    19    25    26   ar
    20     8     9   ar
    21     9    10   ar
    22    10    11   ar
    23    11    12   ar
    24    12    13   ar
    25    13    14    1
    26    13    15   ar
    27    15    16   ar
    28    16     7   ar
    29    26    21   ar
    30    16    11   ar
    31     1     5    1
    32     4     6    1
@<TRIPOS>MOLECULE
*****
 30 32 0 0 0
SMALL
GASTEIGER

@<TRIPOS>ATOM
      1 N          61.8381   89.7700   12.5463 N.am    1  UNL1       -0.2658
      2 C          63.1213   90.5458   12.5087 C.2     1  UNL1        0.3082
      3 O          63.8357   90.7514   11.2058 O.2     1  UNL1       -0.2521
      4 N          63.6902   91.1162   13.7740 N.am    1  UNL1       -0.2680
      5 H          61.3693   89.6351   13.4015 H       1  UNL1        0.1565
      6 H          63.2214   90.9813   14.6292 H       1  UNL1        0.1564
      7 C          61.6122   87.7987   10.8692 C.ar    1  UNL1        0.1040
      8 C          61.2692   89.1996   11.2809 C.ar    1  UNL1        0.0871
      9 C          60.3573   90.0302   10.4274 C.ar    1  UNL1        0.1165
     10 N          59.7884   89.4598    9.1620 N.ar    1  UNL1       -0.2236
     11 C          60.1315   88.0588    8.7503 C.ar    1  UNL1        0.1660
     12 C          59.7257   87.2331    7.5656 C.ar    1  UNL1        0.0713
     13 C          60.3868   85.8921    7.6871 C.ar    1  UNL1        0.1613
     14 CL         60.2565   84.7539    6.7188 Cl      1  UNL1       -0.0594
     15 N          61.2012   85.8891    8.9468 N.ar    1  UNL1       -0.1523
     16 N          61.0434   87.2283    9.6039 N.ar    1  UNL1       -0.2118
     17 C          62.5241   86.9681   11.7228 C.3     1  UNL1        0.1564
     18 C          62.4297   85.4715   11.6854 C.3     1  UNL1        0.0387
     19 C          63.9412   86.9815   13.9003 C.3     1  UNL1        0.1745
     20 O          63.5305   87.6341   12.6138 O.3     1  UNL1       -0.3476
     21 C          64.9735   91.8921   13.7364 C.ar    1  UNL1        0.0546
     22 C          65.2441   92.8396   12.6056 C.ar    1  UNL1        0.0354
     23 C          66.5273   93.6155   12.5680 C.ar    1  UNL1        0.1000
     24 N          67.5399   93.4437   13.6613 N.ar    1  UNL1       -0.2398
     25 C          67.2693   92.4962   14.7921 C.ar    1  UNL1        0.1539
     26 C          65.9860   91.7203   14.8297 C.ar    1  UNL1        0.0378
     27 C          68.2818   92.3244   15.8854 C.3     1  UNL1        0.4349
     28 F          69.2944   92.1527   16.9786 F       1  UNL1       -0.1644
     29 F          69.3851   92.3648   14.8699 F       1  UNL1       -0.1644
     30 F          67.1785   92.2840   16.9009 F       1  UNL1       -0.1644
@<TRIPOS>BOND
     1    19    20    1
     2    20    17    1
     3    17    18    1
     4    17     7    1
     5     7     8   ar
     6     8     1    1
     7     1     2   am
     8     2     3    2
     9     2     4   am
    10     4    21    1
    11    21    22   ar
    12    22    23   ar
    13    23    24   ar
    14    24    25   ar
    15    25    27    1
    16    27    28    1
    17    27    29    1
    18    27    30    1
    19    25    26   ar
    20     8     9   ar
    21     9    10   ar
    22    10    11   ar
    23    11    12   ar
    24    12    13   ar
    25    13    14    1
    26    13    15   ar
    27    15    16   ar
    28    16     7   ar
    29    26    21   ar
    30    16    11   ar
    31     1     5    1
    32     4     6    1
@<TRIPOS>MOLECULE
*****
 30 32 0 0 0
SMALL
GASTEIGER

@<TRIPOS>ATOM
      1 N          61.7673   89.5518   12.6246 N.am    1  UNL1       -0.2658
      2 C          63.0093   90.3925   12.6442 C.2     1  UNL1        0.3082
      3 O          63.7313   90.6940   11.3643 O.2     1  UNL1       -0.2521
      4 N          63.5294   90.9319   13.9436 N.am    1  UNL1       -0.2680
      5 H          61.2934   89.3540   13.4646 H       1  UNL1        0.1565
      6 H          63.0556   90.7341   14.7836 H       1  UNL1        0.1564
      7 C          61.6135   87.6249   10.8887 C.ar    1  UNL1        0.1040
      8 C          61.2472   89.0124   11.3250 C.ar    1  UNL1        0.0871
      9 C          60.3608   89.8606   10.4620 C.ar    1  UNL1        0.1165
     10 N          59.8407   89.3212    9.1625 N.ar    1  UNL1       -0.2236
     11 C          60.2071   87.9337    8.7261 C.ar    1  UNL1        0.1660
     12 C          59.8487   87.1377    7.5063 C.ar    1  UNL1        0.0713
     13 C          60.5137   85.7976    7.6154 C.ar    1  UNL1        0.1613
     14 CL         60.4250   84.6851    6.6132 Cl      1  UNL1       -0.0594
     15 N          61.2830   85.7653    8.9028 N.ar    1  UNL1       -0.1523
     16 N          61.0935   87.0855    9.5892 N.ar    1  UNL1       -0.2118
     17 C          62.4999   86.7767   11.7517 C.3     1  UNL1        0.1564
     18 C          62.4032   85.2813   11.6851 C.3     1  UNL1        0.0387
     19 C          63.9612   86.6884   13.8981 C.3     1  UNL1        0.1745
     20 O          63.4832   87.4240   12.6815 O.3     1  UNL1       -0.3476
     21 C          64.7716   91.7727   13.9632 C.ar    1  UNL1        0.0546
     22 C          65.6337   91.8086   15.1901 C.ar    1  UNL1        0.0354
     23 C          66.8757   92.6493   15.2097 C.ar    1  UNL1        0.1000
     24 N          67.2557   93.4543   14.0024 N.ar    1  UNL1       -0.2398
     25 C          66.3935   93.4184   12.7754 C.ar    1  UNL1        0.1539
     26 C          65.1514   92.5776   12.7558 C.ar    1  UNL1        0.0378
     27 C          66.7735   94.2234   11.5680 C.3     1  UNL1        0.4349
     28 F          67.1534   95.0283   10.3607 F       1  UNL1       -0.1644
     29 F          67.3611   92.9969   10.9353 F       1  UNL1       -0.1644
     30 F          66.1858   95.4499   12.2009 F       1  UNL1       -0.1644
@<TRIPOS>BOND
     1    19    20    1
     2    20    17    1
     3    17    18    1
     4    17     7    1
     5     7     8   ar
     6     8     1    1
     7     1     2   am
     8     2     3    2
     9     2     4   am
    10     4    21    1
    11    21    22   ar
    12    22    23   ar
    13    23    24   ar
    14    24    25   ar
    15    25    27    1
    16    27    28    1
    17    27    29    1
    18    27    30    1
    19    25    26   ar
    20     8     9   ar
    21     9    10   ar
    22    10    11   ar
    23    11    12   ar
    24    12    13   ar
    25    13    14    1
    26    13    15   ar
    27    15    16   ar
    28    16     7   ar
    29    26    21   ar
    30    16    11   ar
    31     1     5    1
    32     4     6    1
@<TRIPOS>MOLECULE
*****
 30 32 0 0 0
SMALL
GASTEIGER

@<TRIPOS>ATOM
      1 N          62.7869   88.1274   12.6212 N.am    1  UNL1       -0.2658
      2 C          63.1538   86.7270   13.0140 C.2     1  UNL1        0.3082
      3 O          64.4057   86.4721   13.8001 O.2     1  UNL1       -0.2521
      4 N          62.2688   85.5815   12.6209 N.am    1  UNL1       -0.2680
      5 H          61.9653   88.2947   12.1052 H       1  UNL1        0.1565
      6 H          61.4471   85.7488   12.1050 H       1  UNL1        0.1564
      7 C          63.7853   90.4736   12.1224 C.ar    1  UNL1        0.1040
      8 C          63.6720   89.2729   13.0144 C.ar    1  UNL1        0.0871
      9 C          64.4437   89.2177   14.2994 C.ar    1  UNL1        0.1165
     10 N          65.3288   90.3632   14.6926 N.ar    1  UNL1       -0.2236
     11 C          65.4421   91.5639   13.8006 C.ar    1  UNL1        0.1660
     12 C          66.2288   92.8350   13.9239 C.ar    1  UNL1        0.0713
     13 C          65.9432   93.6759   12.7150 C.ar    1  UNL1        0.1613
     14 CL         66.5196   95.0304   12.4270 Cl      1  UNL1       -0.0594
     15 N          64.9801   92.9244   11.8446 N.ar    1  UNL1       -0.1523
     16 N          64.6704   91.6190   12.5156 N.ar    1  UNL1       -0.2118
     17 C          63.0136   90.5287   10.8374 C.3     1  UNL1        0.1564
     18 C          63.3915   91.5206    9.7775 C.3     1  UNL1        0.0387
     19 C          60.4630   90.1248   10.5518 C.3     1  UNL1        0.1745
     20 O          61.8638   89.5920   10.6122 O.3     1  UNL1       -0.3476
     21 C          62.6357   84.1811   13.0138 C.ar    1  UNL1        0.0546
     22 C          63.0320   83.8785   14.4284 C.ar    1  UNL1        0.0354
     23 C          63.3989   82.4781   14.8213 C.ar    1  UNL1        0.1000
     24 N          63.3693   81.3804   13.7995 N.ar    1  UNL1       -0.2398
     25 C          62.9730   81.6830   12.3848 C.ar    1  UNL1        0.1539
     26 C          62.6061   83.0834   11.9919 C.ar    1  UNL1        0.0378
     27 C          62.9434   80.5852   11.3630 C.3     1  UNL1        0.4349
     28 F          62.9139   79.4875   10.3412 F       1  UNL1       -0.1644
     29 F          62.5005   79.6152   12.4179 F       1  UNL1       -0.1644
     30 F          63.3864   81.5553   10.3081 F       1  UNL1       -0.1644
@<TRIPOS>BOND
     1    19    20    1
     2    20    17    1
     3    17    18    1
     4    17     7    1
     5     7     8   ar
     6     8     1    1
     7     1     2   am
     8     2     3    2
     9     2     4   am
    10     4    21    1
    11    21    22   ar
    12    22    23   ar
    13    23    24   ar
    14    24    25   ar
    15    25    27    1
    16    27    28    1
    17    27    29    1
    18    27    30    1
    19    25    26   ar
    20     8     9   ar
    21     9    10   ar
    22    10    11   ar
    23    11    12   ar
    24    12    13   ar
    25    13    14    1
    26    13    15   ar
    27    15    16   ar
    28    16     7   ar
    29    26    21   ar
    30    16    11   ar
    31     1     5    1
    32     4     6    1
