@<TRIPOS>MOLECULE
*****
 41 44 0 0 0
SMALL
GASTEIGER

@<TRIPOS>ATOM
      1 C          63.8219   84.0962   13.1713 C.ar    1  UNL1       -0.0041
      2 C          63.4541   85.3917   12.5107 C.ar    1  UNL1        0.0028
      3 C          63.7748   86.6938   13.1828 C.ar    1  UNL1        0.0381
      4 C          63.5362   88.1181   12.7773 C.ar    1  UNL1        0.0969
      5 N          64.0771   89.0049   13.8594 N.ar    1  UNL1       -0.2472
      6 N          64.6501   88.1287   14.9337 N.ar    1  UNL1       -0.1690
      7 C          64.4632   86.7003   14.5155 C.ar    1  UNL1        0.1021
      8 C          64.8310   85.4048   15.1761 C.ar    1  UNL1        0.0166
      9 C          64.5103   84.1028   14.5039 C.ar    1  UNL1       -0.0203
     10 C          64.8782   82.8072   15.1646 C.3     1  UNL1        0.0311
     11 C          64.5129   83.6903   10.2804 C.3     1  UNL1        0.0310
     12 C          63.8467   82.5911   11.0537 C.ar    1  UNL1       -0.0219
     13 C          63.5261   81.2890   10.3816 C.ar    1  UNL1       -0.0004
     14 C          62.8599   80.1899   11.1550 C.ar    1  UNL1        0.0711
     15 C          62.5144   80.3928   12.6005 C.ar    1  UNL1        0.0038
     16 C          62.8351   81.6949   13.2726 C.ar    1  UNL1       -0.0004
     17 C          63.5013   82.7940   12.4992 C.ar    1  UNL1       -0.0043
     18 C          62.5393   78.8878   10.4828 C.3     1  UNL1        0.4186
     19 F          62.2186   77.5858    9.8106 F       1  UNL1       -0.1659
     20 F          62.2750   79.6160    9.1984 F       1  UNL1       -0.1659
     21 F          62.8035   78.1596   11.7673 F       1  UNL1       -0.1659
     22 C          64.0499   90.5046   13.8661 C.3     1  UNL1        0.1274
     23 C          64.8192   91.2733   12.8330 C.ar    1  UNL1       -0.0001
     24 C          64.2080   91.5442   11.4903 C.ar    1  UNL1       -0.0023
     25 C          64.9773   92.3129   10.4573 C.ar    1  UNL1        0.0042
     26 C          66.3580   92.8108   10.7669 C.ar    1  UNL1        0.0533
     27 C          66.9693   92.5399   12.1097 C.ar    1  UNL1        0.0042
     28 C          66.1999   91.7712   13.1427 C.ar    1  UNL1       -0.0023
     29 C          67.1273   93.5795    9.7339 C.2     1  UNL1        0.2459
     30 O          67.9543   92.8493    8.7175 O.2     1  UNL1       -0.2701
     31 N          67.0696   95.0783    9.7171 N.am    1  UNL1       -0.3005
     32 H          66.5268   95.5575   10.3842 H       1  UNL1        0.1498
     33 C          67.8390   95.8469    8.6840 C.3     1  UNL1        0.0956
     34 C          67.1372   96.8538    7.8216 C.3     1  UNL1        0.0629
     35 C          65.6400   96.8483    7.7291 C.2     1  UNL1        0.0520
     36 O          64.9716   96.8443    6.3862 O.co2   1  UNL1       -0.5491
     37 O          64.8113   96.8468    8.9793 O.co2   1  UNL1       -0.5491
     38 C          63.2534   91.2357   14.9059 C.3     1  UNL1        0.0289
     39 C          63.6223   91.1154   16.3549 C.3     1  UNL1        0.0023
     40 C          63.1796   89.9195   17.1446 C.3     1  UNL1        0.0001
     41 C          64.4337   92.1910   17.0141 C.3     1  UNL1        0.0001
@<TRIPOS>UNITY_ATOM_ATTR
36 1
charge -1
@<TRIPOS>BOND
     1    11    12    1
     2    12    13   ar
     3    13    14   ar
     4    14    18    1
     5    18    19    1
     6    18    20    1
     7    18    21    1
     8    14    15   ar
     9    15    16   ar
    10    16    17   ar
    11    17     1    1
    12     1     2   ar
    13     2     3   ar
    14     3     4   ar
    15     4     5   ar
    16     5    22    1
    17    22    38    1
    18    38    39    1
    19    39    40    1
    20    39    41    1
    21    22    23    1
    22    23    24   ar
    23    24    25   ar
    24    25    26   ar
    25    26    29    1
    26    29    30    2
    27    29    31   am
    28    31    33    1
    29    33    34    1
    30    34    35    1
    31    35    36   ar
    32    35    37   ar
    33    26    27   ar
    34    27    28   ar
    35     5     6   ar
    36     6     7   ar
    37     7     8   ar
    38     8     9   ar
    39     9    10    1
    40    17    12   ar
    41     9     1   ar
    42     7     3   ar
    43    28    23   ar
    44    31    32    1
@<TRIPOS>MOLECULE
*****
 41 44 0 0 0
SMALL
GASTEIGER

@<TRIPOS>ATOM
      1 C          63.7057   90.7779   12.4596 C.ar    1  UNL1       -0.0041
      2 C          63.5700   90.7876   10.9658 C.ar    1  UNL1        0.0028
      3 C          62.3577   90.1859   10.3190 C.ar    1  UNL1        0.0381
      4 C          61.9502   90.0497    8.8818 C.ar    1  UNL1        0.0969
      5 N          60.6219   89.3542    8.8407 N.ar    1  UNL1       -0.2472
      6 N          60.2084   89.0605   10.2523 N.ar    1  UNL1       -0.1690
      7 C          61.2813   89.5745   11.1660 C.ar    1  UNL1        0.1021
      8 C          61.4170   89.5649   12.6598 C.ar    1  UNL1        0.0166
      9 C          62.6293   90.1666   13.3066 C.ar    1  UNL1       -0.0203
     10 C          62.7650   90.1569   14.8005 C.3     1  UNL1        0.0311
     11 C          65.1546   93.0378   11.1204 C.3     1  UNL1        0.0310
     12 C          65.6425   92.5096   12.4369 C.ar    1  UNL1       -0.0219
     13 C          66.8547   93.1113   13.0837 C.ar    1  UNL1       -0.0004
     14 C          67.3425   92.5831   14.4001 C.ar    1  UNL1        0.0711
     15 C          66.6181   91.4531   15.0698 C.ar    1  UNL1        0.0038
     16 C          65.4058   90.8514   14.4229 C.ar    1  UNL1       -0.0004
     17 C          64.9180   91.3797   13.1065 C.ar    1  UNL1       -0.0043
     18 C          68.5548   93.1848   15.0469 C.3     1  UNL1        0.4186
     19 F          69.7671   93.7865   15.6935 F       1  UNL1       -0.1659
     20 F          69.4379   92.3334   14.1837 F       1  UNL1       -0.1659
     21 F          67.6717   94.0363   15.9100 F       1  UNL1       -0.1659
     22 C          59.8436   89.0124    7.6048 C.3     1  UNL1        0.1274
     23 C          59.7688   89.9914    6.4708 C.ar    1  UNL1       -0.0001
     24 C          58.4420   90.5480    6.0466 C.ar    1  UNL1       -0.0023
     25 C          58.3673   91.5270    4.9127 C.ar    1  UNL1        0.0042
     26 C          59.6193   91.9495    4.2028 C.ar    1  UNL1        0.0533
     27 C          60.9461   91.3929    4.6269 C.ar    1  UNL1        0.0042
     28 C          61.0208   90.4139    5.7609 C.ar    1  UNL1       -0.0023
     29 C          59.5445   92.9285    3.0688 C.2     1  UNL1        0.2459
     30 O          59.9659   94.3527    3.2786 O.2     1  UNL1       -0.2701
     31 N          59.0484   92.4833    1.7251 N.am    1  UNL1       -0.3005
     32 H          58.7718   91.5485    1.5874 H       1  UNL1        0.1498
     33 C          58.9736   93.4624    0.5911 C.3     1  UNL1        0.0956
     34 C          58.4443   93.0261   -0.7428 C.3     1  UNL1        0.0629
     35 C          57.0265   93.3333   -1.1241 C.2     1  UNL1        0.0520
     36 O          56.0967   92.2223   -1.5128 O.co2   1  UNL1       -0.5491
     37 O          56.5384   94.7517   -1.1166 O.co2   1  UNL1       -0.5491
     38 C          59.1401   87.6915    7.5029 C.3     1  UNL1        0.0289
     39 C          59.8658   86.4263    7.8529 C.3     1  UNL1        0.0023
     40 C          60.4128   86.2337    9.2363 C.3     1  UNL1        0.0001
     41 C          60.0447   85.3537    6.8197 C.3     1  UNL1        0.0001
@<TRIPOS>UNITY_ATOM_ATTR
36 1
charge -1
@<TRIPOS>BOND
     1    11    12    1
     2    12    13   ar
     3    13    14   ar
     4    14    18    1
     5    18    19    1
     6    18    20    1
     7    18    21    1
     8    14    15   ar
     9    15    16   ar
    10    16    17   ar
    11    17     1    1
    12     1     2   ar
    13     2     3   ar
    14     3     4   ar
    15     4     5   ar
    16     5    22    1
    17    22    38    1
    18    38    39    1
    19    39    40    1
    20    39    41    1
    21    22    23    1
    22    23    24   ar
    23    24    25   ar
    24    25    26   ar
    25    26    29    1
    26    29    30    2
    27    29    31   am
    28    31    33    1
    29    33    34    1
    30    34    35    1
    31    35    36   ar
    32    35    37   ar
    33    26    27   ar
    34    27    28   ar
    35     5     6   ar
    36     6     7   ar
    37     7     8   ar
    38     8     9   ar
    39     9    10    1
    40    17    12   ar
    41     9     1   ar
    42     7     3   ar
    43    28    23   ar
    44    31    32    1
