@<TRIPOS>MOLECULE
*****
 32 35 0 0 0
SMALL
GASTEIGER

@<TRIPOS>ATOM
      1 C          62.2062   88.2078   11.4131 C.3     1  UNL1        0.1420
      2 C          62.1291   89.7017   11.3023 C.3     1  UNL1        0.0268
      3 C          61.3234   90.3318   10.2052 C.3     1  UNL1        0.0022
      4 C          60.5948   89.4679    9.2188 C.3     1  UNL1        0.0051
      5 C          60.6719   87.9740    9.3296 C.3     1  UNL1        0.0595
      6 C          61.4776   87.3440   10.4267 C.3     1  UNL1        0.0731
      7 C          61.5548   85.8500   10.5376 C.3     1  UNL1        0.2075
      8 O          62.3605   85.2200   11.6347 O.3     1  UNL1       -0.4733
      9 C          63.0891   86.0838   12.6211 C.ar    1  UNL1        0.1654
     10 C          63.8949   85.4537   13.7183 C.ar    1  UNL1        0.1737
     11 F          63.9720   83.9598   13.8291 F       1  UNL1       -0.2010
     12 C          64.6235   86.3176   14.7047 C.ar    1  UNL1        0.0351
     13 C          64.5463   87.8115   14.5938 C.ar    1  UNL1        0.0319
     14 C          63.7406   88.4416   13.4967 C.ar    1  UNL1        0.1407
     15 F          63.8800   89.9237   13.6802 F       1  UNL1       -0.2043
     16 C          63.0120   87.5777   12.5103 C.ar    1  UNL1        0.0616
     17 O          63.7311   89.0885   12.3658 O.2     1  UNL1       -0.1684
     18 S          62.9348   89.0717   12.3995 S.O2    1  UNL1        0.0093
     19 O          61.8405   89.6917   13.2168 O.2     1  UNL1       -0.1684
     20 C          63.6634   89.9355   13.3859 C.ar    1  UNL1        0.1059
     21 C          63.1549   90.0617   14.7914 C.ar    1  UNL1        0.0192
     22 C          63.8835   90.9256   15.7778 C.ar    1  UNL1        0.0127
     23 C          65.1206   91.6632   15.3586 C.ar    1  UNL1        0.0578
     24 CL         65.8492   92.5270   16.3450 Cl      1  UNL1       -0.0822
     25 C          65.6290   91.5370   13.9531 C.ar    1  UNL1        0.0127
     26 C          64.9004   90.6731   12.9667 C.ar    1  UNL1        0.0192
     27 C          60.4414   86.5240    9.0223 C.3     1  UNL1        0.1396
     28 O          59.5550   86.1316    7.8777 O.3     1  UNL1       -0.3819
     29 H          58.6434   86.4045    8.0664 H       1  UNL1        0.2104
     30 C          59.7861   88.1005    8.1257 C.3     1  UNL1        0.1396
     31 O          59.7310   89.3937    7.3676 O.3     1  UNL1       -0.3819
     32 H          59.3406   90.0814    7.9294 H       1  UNL1        0.2104
@<TRIPOS>BOND
     1    17    18    2
     2    18    19    2
     3    18    20    1
     4    20    21   ar
     5    21    22   ar
     6    22    23   ar
     7    23    24    1
     8    23    25   ar
     9    25    26   ar
    10     1    18    1
    11     1     2    1
    12     2     3    1
    13     3     4    1
    14     4     5    1
    15     5    27    1
    16    27    28    1
    17     5    30    1
    18    30    31    1
    19     5     6    1
    20     6     7    1
    21     7     8    1
    22     8     9    1
    23     9    10   ar
    24    10    11    1
    25    10    12   ar
    26    12    13   ar
    27    13    14   ar
    28    14    15    1
    29    14    16   ar
    30    26    20   ar
    31     6     1    1
    32    16     9   ar
    33    16     1    1
    34    28    29    1
    35    31    32    1
@<TRIPOS>MOLECULE
*****
 32 35 0 0 0
SMALL
GASTEIGER

@<TRIPOS>ATOM
      1 C          62.0810   86.9717   11.1065 C.3     1  UNL1        0.1420
      2 C          61.5804   85.7185   10.4517 C.3     1  UNL1        0.0268
      3 C          60.7127   85.8052    9.2312 C.3     1  UNL1        0.0022
      4 C          60.3457   87.1451    8.6656 C.3     1  UNL1        0.0051
      5 C          60.8464   88.3983    9.3203 C.3     1  UNL1        0.0595
      6 C          61.7141   88.3116   10.5408 C.3     1  UNL1        0.0731
      7 C          62.2148   89.5648   11.1957 C.3     1  UNL1        0.2075
      8 O          63.0824   89.4781   12.4162 O.3     1  UNL1       -0.4733
      9 C          63.4494   88.1382   12.9818 C.ar    1  UNL1        0.1654
     10 C          64.3171   88.0515   14.2024 C.ar    1  UNL1        0.1737
     11 F          64.8178   89.3047   14.8572 F       1  UNL1       -0.2010
     12 C          64.6841   86.7116   14.7681 C.ar    1  UNL1        0.0351
     13 C          64.1834   85.4584   14.1132 C.ar    1  UNL1        0.0319
     14 C          63.3157   85.5451   12.8927 C.ar    1  UNL1        0.1407
     15 F          63.0024   84.1299   12.5069 F       1  UNL1       -0.2043
     16 C          62.9488   86.8850   12.3271 C.ar    1  UNL1        0.0616
     17 O          62.2144   85.4625   12.4153 O.2     1  UNL1       -0.1684
     18 S          62.4480   85.6318   11.6722 S.O2    1  UNL1        0.0093
     19 O          63.2094   84.9662   10.5644 O.2     1  UNL1       -0.1684
     20 C          62.8150   84.2919   12.2379 C.ar    1  UNL1        0.1059
     21 C          63.9864   83.5381   11.6812 C.ar    1  UNL1        0.0192
     22 C          64.3534   82.1982   12.2469 C.ar    1  UNL1        0.0127
     23 C          63.5490   81.6121   13.3692 C.ar    1  UNL1        0.0578
     24 CL         63.9160   80.2722   13.9349 Cl      1  UNL1       -0.0822
     25 C          62.3777   82.3659   13.9258 C.ar    1  UNL1        0.0127
     26 C          62.0107   83.7058   13.3601 C.ar    1  UNL1        0.0192
     27 C          61.0731   89.8576    9.5830 C.3     1  UNL1        0.1396
     28 O          59.9043   90.7676    9.8189 O.3     1  UNL1       -0.3819
     29 H          59.3736   90.8289    9.0092 H       1  UNL1        0.2104
     30 C          60.0574   88.9918    8.1910 C.3     1  UNL1        0.1396
     31 O          58.9744   88.1912    7.5307 O.3     1  UNL1       -0.3819
     32 H          59.3672   87.4317    7.0728 H       1  UNL1        0.2104
@<TRIPOS>BOND
     1    17    18    2
     2    18    19    2
     3    18    20    1
     4    20    21   ar
     5    21    22   ar
     6    22    23   ar
     7    23    24    1
     8    23    25   ar
     9    25    26   ar
    10     1    18    1
    11     1     2    1
    12     2     3    1
    13     3     4    1
    14     4     5    1
    15     5    27    1
    16    27    28    1
    17     5    30    1
    18    30    31    1
    19     5     6    1
    20     6     7    1
    21     7     8    1
    22     8     9    1
    23     9    10   ar
    24    10    11    1
    25    10    12   ar
    26    12    13   ar
    27    13    14   ar
    28    14    15    1
    29    14    16   ar
    30    26    20   ar
    31     6     1    1
    32    16     9   ar
    33    16     1    1
    34    28    29    1
    35    31    32    1
@<TRIPOS>MOLECULE
*****
 32 35 0 0 0
SMALL
GASTEIGER

@<TRIPOS>ATOM
      1 C          62.9372   88.0221   11.6859 C.3     1  UNL1        0.1420
      2 C          62.5641   88.7380   10.4217 C.3     1  UNL1        0.0268
      3 C          62.6374   90.2348   10.3578 C.3     1  UNL1        0.0022
      4 C          63.0839   91.0158   11.5581 C.3     1  UNL1        0.0051
      5 C          63.4570   90.2999   12.8223 C.3     1  UNL1        0.0595
      6 C          63.3836   88.8031   12.8862 C.3     1  UNL1        0.0731
      7 C          63.7568   88.0871   14.1505 C.3     1  UNL1        0.2075
      8 O          63.6834   86.5903   14.2143 O.3     1  UNL1       -0.4733
      9 C          63.2370   85.8094   13.0140 C.ar    1  UNL1        0.1654
     10 C          63.1636   84.3125   13.0779 C.ar    1  UNL1        0.1737
     11 F          63.5367   83.5966   14.3421 F       1  UNL1       -0.2010
     12 C          62.7172   83.5315   11.8776 C.ar    1  UNL1        0.0351
     13 C          62.3441   84.2475   10.6133 C.ar    1  UNL1        0.0319
     14 C          62.4174   85.7443   10.5495 C.ar    1  UNL1        0.1407
     15 F          61.9828   86.1208    9.1640 F       1  UNL1       -0.2043
     16 C          62.8639   86.5253   11.7498 C.ar    1  UNL1        0.0616
     17 O          62.9478   87.2641    9.8329 O.2     1  UNL1       -0.1684
     18 S          62.4907   87.2412   10.4855 S.O2    1  UNL1        0.0093
     19 O          61.2071   86.6018   10.9253 O.2     1  UNL1       -0.1684
     20 C          62.0443   86.4603    9.2852 C.ar    1  UNL1        0.1059
     21 C          60.5978   86.4574    8.8878 C.ar    1  UNL1        0.0192
     22 C          60.1514   85.6764    7.6875 C.ar    1  UNL1        0.0127
     23 C          61.1514   84.8984    6.8845 C.ar    1  UNL1        0.0578
     24 CL         60.7049   84.1175    5.6842 Cl      1  UNL1       -0.0822
     25 C          62.5977   84.9013    7.2819 C.ar    1  UNL1        0.0127
     26 C          63.0442   85.6822    8.4822 C.ar    1  UNL1        0.0192
     27 C          63.9102   90.0770   14.2348 C.3     1  UNL1        0.1396
     28 O          63.7081   91.1480   15.2652 O.3     1  UNL1       -0.3819
     29 H          64.2511   91.9196   15.0404 H       1  UNL1        0.2104
     30 C          63.6877   91.7193   13.2490 C.3     1  UNL1        0.1396
     31 O          64.9539   92.4231   12.8596 O.3     1  UNL1       -0.3819
     32 H          65.7079   91.9975   13.2969 H       1  UNL1        0.2104
@<TRIPOS>BOND
     1    17    18    2
     2    18    19    2
     3    18    20    1
     4    20    21   ar
     5    21    22   ar
     6    22    23   ar
     7    23    24    1
     8    23    25   ar
     9    25    26   ar
    10     1    18    1
    11     1     2    1
    12     2     3    1
    13     3     4    1
    14     4     5    1
    15     5    27    1
    16    27    28    1
    17     5    30    1
    18    30    31    1
    19     5     6    1
    20     6     7    1
    21     7     8    1
    22     8     9    1
    23     9    10   ar
    24    10    11    1
    25    10    12   ar
    26    12    13   ar
    27    13    14   ar
    28    14    15    1
    29    14    16   ar
    30    26    20   ar
    31     6     1    1
    32    16     9   ar
    33    16     1    1
    34    28    29    1
    35    31    32    1
@<TRIPOS>MOLECULE
*****
 32 35 0 0 0
SMALL
GASTEIGER

@<TRIPOS>ATOM
      1 C          63.2228   87.5614   12.5600 C.3     1  UNL1        0.1420
      2 C          63.8240   86.6947   13.6265 C.3     1  UNL1        0.0268
      3 C          64.5088   87.3215   14.8047 C.3     1  UNL1        0.0022
      4 C          64.5924   88.8150   14.9164 C.3     1  UNL1        0.0051
      5 C          63.9912   89.6817   13.8499 C.3     1  UNL1        0.0595
      6 C          63.3064   89.0549   12.6717 C.3     1  UNL1        0.0731
      7 C          62.7052   89.9216   11.6052 C.3     1  UNL1        0.2075
      8 O          62.0204   89.2948   10.4270 O.3     1  UNL1       -0.4733
      9 C          61.9368   87.8013   10.3153 C.ar    1  UNL1        0.1654
     10 C          61.2519   87.1745    9.1371 C.ar    1  UNL1        0.1737
     11 F          60.6508   88.0412    8.0706 F       1  UNL1       -0.2010
     12 C          61.1683   85.6810    9.0254 C.ar    1  UNL1        0.0351
     13 C          61.7695   84.8143   10.0919 C.ar    1  UNL1        0.0319
     14 C          62.4543   85.4411   11.2701 C.ar    1  UNL1        0.1407
     15 F          62.9303   84.3040   12.1247 F       1  UNL1       -0.2043
     16 C          62.5380   86.9346   11.3818 C.ar    1  UNL1        0.0616
     17 O          63.8199   85.6533   12.4562 O.2     1  UNL1       -0.1684
     18 S          63.1392   86.0679   12.4483 S.O2    1  UNL1        0.0093
     19 O          61.6680   85.7933   12.3474 O.2     1  UNL1       -0.1684
     20 C          63.0555   84.5744   12.3366 C.ar    1  UNL1        0.1059
     21 C          62.1818   83.7997   13.2782 C.ar    1  UNL1        0.0192
     22 C          62.0982   82.3062   13.1665 C.ar    1  UNL1        0.0127
     23 C          62.8883   81.5874   12.1133 C.ar    1  UNL1        0.0578
     24 CL         62.8046   80.0939   12.0016 Cl      1  UNL1       -0.0822
     25 C          63.7619   82.3622   11.1718 C.ar    1  UNL1        0.0127
     26 C          63.8455   83.8557   11.2834 C.ar    1  UNL1        0.0192
     27 C          63.5780   90.9149   13.1024 C.3     1  UNL1        0.1396
     28 O          64.4520   92.1337   13.1250 O.3     1  UNL1       -0.3819
     29 H          64.4831   92.4926   14.0256 H       1  UNL1        0.2104
     30 C          64.5326   90.7368   14.7685 C.3     1  UNL1        0.1396
     31 O          63.6351   91.3790   15.7844 O.3     1  UNL1       -0.3819
     32 H          62.9501   91.8947   15.3307 H       1  UNL1        0.2104
@<TRIPOS>BOND
     1    17    18    2
     2    18    19    2
     3    18    20    1
     4    20    21   ar
     5    21    22   ar
     6    22    23   ar
     7    23    24    1
     8    23    25   ar
     9    25    26   ar
    10     1    18    1
    11     1     2    1
    12     2     3    1
    13     3     4    1
    14     4     5    1
    15     5    27    1
    16    27    28    1
    17     5    30    1
    18    30    31    1
    19     5     6    1
    20     6     7    1
    21     7     8    1
    22     8     9    1
    23     9    10   ar
    24    10    11    1
    25    10    12   ar
    26    12    13   ar
    27    13    14   ar
    28    14    15    1
    29    14    16   ar
    30    26    20   ar
    31     6     1    1
    32    16     9   ar
    33    16     1    1
    34    28    29    1
    35    31    32    1
@<TRIPOS>MOLECULE
*****
 32 35 0 0 0
SMALL
GASTEIGER

@<TRIPOS>ATOM
      1 C          64.7103   91.5851   12.7852 C.3     1  UNL1        0.1420
      2 C          65.2771   91.6105   14.1738 C.3     1  UNL1        0.0268
      3 C          66.1702   92.7382   14.5987 C.3     1  UNL1        0.0022
      4 C          66.4966   93.8404   13.6351 C.3     1  UNL1        0.0051
      5 C          65.9298   93.8150   12.2466 C.3     1  UNL1        0.0595
      6 C          65.0367   92.6873   11.8217 C.3     1  UNL1        0.0731
      7 C          64.4699   92.6619   10.4330 C.3     1  UNL1        0.2075
      8 O          63.5767   91.5342   10.0081 O.3     1  UNL1       -0.4733
      9 C          63.2504   90.4319   10.9717 C.ar    1  UNL1        0.1654
     10 C          62.3572   89.3042   10.5467 C.ar    1  UNL1        0.1737
     11 F          61.7904   89.2788    9.1582 F       1  UNL1       -0.2010
     12 C          62.0308   88.2020   11.5103 C.ar    1  UNL1        0.0351
     13 C          62.5977   88.2274   12.8989 C.ar    1  UNL1        0.0319
     14 C          63.4908   89.3551   13.3238 C.ar    1  UNL1        0.1407
     15 F          63.8704   89.0683   14.7464 F       1  UNL1       -0.2043
     16 C          63.8172   90.4574   12.3602 C.ar    1  UNL1        0.0616
     17 O          64.8747   89.8554   13.7800 O.2     1  UNL1       -0.1684
     18 S          64.3840   90.4828   13.7488 S.O2    1  UNL1        0.0093
     19 O          63.1218   90.9447   14.4147 O.2     1  UNL1       -0.1684
     20 C          64.0576   89.3806   14.7124 C.ar    1  UNL1        0.1059
     21 C          63.1977   89.6607   15.9092 C.ar    1  UNL1        0.0192
     22 C          62.8714   88.5585   16.8728 C.ar    1  UNL1        0.0127
     23 C          63.4049   87.1760   16.6396 C.ar    1  UNL1        0.0578
     24 CL         63.0785   86.0738   17.6032 Cl      1  UNL1       -0.0822
     25 C          64.2648   86.8959   15.4429 C.ar    1  UNL1        0.0127
     26 C          64.5911   87.9982   14.4793 C.ar    1  UNL1        0.0192
     27 C          65.6380   94.2315   10.8354 C.3     1  UNL1        0.1396
     28 O          66.6875   94.9381   10.0297 O.3     1  UNL1       -0.3819
     29 H          66.8655   95.8072   10.4219 H       1  UNL1        0.2104
     30 C          66.7217   95.0874   12.1814 C.3     1  UNL1        0.1396
     31 O          66.0192   96.4115   12.2374 O.3     1  UNL1       -0.3819
     32 H          65.4712   96.5206   11.4445 H       1  UNL1        0.2104
@<TRIPOS>BOND
     1    17    18    2
     2    18    19    2
     3    18    20    1
     4    20    21   ar
     5    21    22   ar
     6    22    23   ar
     7    23    24    1
     8    23    25   ar
     9    25    26   ar
    10     1    18    1
    11     1     2    1
    12     2     3    1
    13     3     4    1
    14     4     5    1
    15     5    27    1
    16    27    28    1
    17     5    30    1
    18    30    31    1
    19     5     6    1
    20     6     7    1
    21     7     8    1
    22     8     9    1
    23     9    10   ar
    24    10    11    1
    25    10    12   ar
    26    12    13   ar
    27    13    14   ar
    28    14    15    1
    29    14    16   ar
    30    26    20   ar
    31     6     1    1
    32    16     9   ar
    33    16     1    1
    34    28    29    1
    35    31    32    1
@<TRIPOS>MOLECULE
*****
 32 35 0 0 0
SMALL
GASTEIGER

@<TRIPOS>ATOM
      1 C          63.5518   86.6655   13.3360 C.3     1  UNL1        0.1420
      2 C          64.2923   86.6653   14.6404 C.3     1  UNL1        0.0268
      3 C          64.6260   85.3668   15.3131 C.3     1  UNL1        0.0022
      4 C          64.2192   84.0686   14.6814 C.3     1  UNL1        0.0051
      5 C          63.4787   84.0688   13.3770 C.3     1  UNL1        0.0595
      6 C          63.1450   85.3673   12.7043 C.3     1  UNL1        0.0731
      7 C          62.4044   85.3676   11.3997 C.3     1  UNL1        0.2075
      8 O          62.0707   86.6660   10.7270 O.3     1  UNL1       -0.4733
      9 C          62.4775   87.9643   11.3588 C.ar    1  UNL1        0.1654
     10 C          62.1438   89.2628   10.6860 C.ar    1  UNL1        0.1737
     11 F          61.4033   89.2630    9.3816 F       1  UNL1       -0.2010
     12 C          62.5506   90.5610   11.3177 C.ar    1  UNL1        0.0351
     13 C          63.2911   90.5607   12.6222 C.ar    1  UNL1        0.0319
     14 C          63.6248   89.2623   13.2949 C.ar    1  UNL1        0.1407
     15 F          64.3536   89.6248   14.5549 F       1  UNL1       -0.2043
     16 C          63.2180   87.9640   12.6632 C.ar    1  UNL1        0.0616
     17 O          64.3089   88.5111   13.5061 O.2     1  UNL1       -0.1684
     18 S          63.9586   87.9638   13.9677 S.O2    1  UNL1        0.0093
     19 O          63.5424   87.8160   15.4012 O.2     1  UNL1       -0.1684
     20 C          64.3654   89.2620   14.5994 C.ar    1  UNL1        0.1059
     21 C          63.4842   89.9031   15.6303 C.ar    1  UNL1        0.0192
     22 C          63.8910   91.2013   16.2620 C.ar    1  UNL1        0.0127
     23 C          65.1790   91.8585   15.8629 C.ar    1  UNL1        0.0578
     24 CL         65.5858   93.1567   16.4946 Cl      1  UNL1       -0.0822
     25 C          66.0601   91.2174   14.8321 C.ar    1  UNL1        0.0127
     26 C          65.6533   89.9192   14.2004 C.ar    1  UNL1        0.0192
     27 C          62.7684   83.5563   12.1592 C.3     1  UNL1        0.1396
     28 O          62.3645   82.1140   12.0780 O.3     1  UNL1       -0.3819
     29 H          63.1582   81.5571   12.0494 H       1  UNL1        0.2104
     30 C          63.5657   82.5923   13.6268 C.3     1  UNL1        0.1396
     31 O          62.9900   82.0090   14.8831 O.3     1  UNL1       -0.3819
     32 H          63.4899   82.3329   15.6486 H       1  UNL1        0.2104
@<TRIPOS>BOND
     1    17    18    2
     2    18    19    2
     3    18    20    1
     4    20    21   ar
     5    21    22   ar
     6    22    23   ar
     7    23    24    1
     8    23    25   ar
     9    25    26   ar
    10     1    18    1
    11     1     2    1
    12     2     3    1
    13     3     4    1
    14     4     5    1
    15     5    27    1
    16    27    28    1
    17     5    30    1
    18    30    31    1
    19     5     6    1
    20     6     7    1
    21     7     8    1
    22     8     9    1
    23     9    10   ar
    24    10    11    1
    25    10    12   ar
    26    12    13   ar
    27    13    14   ar
    28    14    15    1
    29    14    16   ar
    30    26    20   ar
    31     6     1    1
    32    16     9   ar
    33    16     1    1
    34    28    29    1
    35    31    32    1
