@<TRIPOS>MOLECULE
*****
 40 43 0 0 0
SMALL
GASTEIGER

@<TRIPOS>ATOM
      1 C          63.9115   86.3892   15.5710 C.ar    1  UNL1        0.0611
      2 C          63.1470   85.9299   16.7771 C.ar    1  UNL1        0.1037
      3 N          62.6899   87.1460   17.5269 N.ar    1  UNL1       -0.2269
      4 C          63.1718   88.3569   16.7842 C.ar    1  UNL1        0.1407
      5 N          63.0207   89.8249   17.0525 N.ar    1  UNL1       -0.3374
      6 C          63.6246   90.8252   16.1120 C.ar    1  UNL1        0.0734
      7 C          64.3796   90.3575   14.9032 C.ar    1  UNL1        0.0171
      8 C          64.5307   88.8895   14.6349 C.ar    1  UNL1        0.0046
      9 C          63.9268   87.8892   15.5754 C.ar    1  UNL1        0.0386
     10 H          62.5252   90.1319   17.8459 H       1  UNL1        0.1674
     11 C          64.9835   91.3579   13.9626 C.ar    1  UNL1        0.0015
     12 C          66.0816   92.2639   14.4352 C.ar    1  UNL1        0.0014
     13 C          66.6855   93.2643   13.4946 C.ar    1  UNL1        0.0158
     14 C          66.1913   93.3586   12.0815 C.ar    1  UNL1        0.0644
     15 C          65.0931   92.4526   11.6090 C.ar    1  UNL1        0.0158
     16 C          64.4893   91.4522   12.5495 C.ar    1  UNL1        0.0014
     17 N          66.7951   94.3590   11.1410 N.pl3   1  UNL1       -0.2187
     18 H          66.7822   95.3171   11.3667 H       1  UNL1        0.1734
     19 S          67.4186   93.8994    9.8565 S.O2    1  UNL1        0.0558
     20 C          68.0422   93.4398    8.5719 C.3     1  UNL1        0.1996
     21 O          68.2012   92.8631   10.6072 O.2     1  UNL1       -0.1544
     22 O          66.6360   94.9357    9.1058 O.2     1  UNL1       -0.1544
     23 C          64.5487   85.5040   14.5413 C.2     1  UNL1        0.2015
     24 O          65.9889   85.1084   14.6801 O.2     1  UNL1       -0.2864
     25 C          62.4090   85.5019   11.1989 C.ar    1  UNL1        0.0920
     26 C          62.1398   84.0353   11.0356 C.ar    1  UNL1        0.0204
     27 C          62.6736   83.0583   12.0408 C.ar    1  UNL1        0.0312
     28 C          63.4766   83.5478   13.2094 C.ar    1  UNL1        0.1454
     29 F          64.0104   82.5708   14.2147 F       1  UNL1       -0.2040
     30 C          63.7457   85.0144   13.3727 C.ar    1  UNL1        0.0951
     31 C          63.2119   85.9914   12.3674 C.ar    1  UNL1        0.1598
     32 F          63.4811   87.4580   12.5308 F       1  UNL1       -0.2026
     33 N          61.8751   86.4789   10.1936 N.pl3   1  UNL1       -0.2166
     34 H          61.7398   87.4207   10.4463 H       1  UNL1        0.1734
     35 S          61.5475   86.0208    8.8034 S.O2    1  UNL1        0.0540
     36 O          62.9930   85.6950    8.5701 O.2     1  UNL1       -0.1545
     37 O          60.1020   86.3467    9.0367 O.2     1  UNL1       -0.1545
     38 C          61.2198   85.5628    7.4132 C.3     1  UNL1        0.1724
     39 C          61.8273   84.0845    5.3648 C.3     1  UNL1        0.0019
     40 C          62.2395   84.8090    6.6119 C.3     1  UNL1        0.0273
@<TRIPOS>BOND
     1    39    40    1
     2    40    38    1
     3    38    35    1
     4    35    36    2
     5    35    37    2
     6    35    33    1
     7    33    25    1
     8    25    26   ar
     9    26    27   ar
    10    27    28   ar
    11    28    29    1
    12    28    30   ar
    13    30    23    1
    14    23    24    2
    15    23     1    1
    16     1     2   ar
    17     2     3   ar
    18     3     4   ar
    19     4     5   ar
    20     5     6   ar
    21     6     7   ar
    22     7    11    1
    23    11    12   ar
    24    12    13   ar
    25    13    14   ar
    26    14    17    1
    27    17    19    1
    28    19    20    1
    29    19    21    2
    30    19    22    2
    31    14    15   ar
    32    15    16   ar
    33     7     8   ar
    34     8     9   ar
    35    30    31   ar
    36    31    32    1
    37    31    25   ar
    38     9     1   ar
    39     9     4    1
    40    16    11   ar
    41    33    34    1
    42     5    10    1
    43    17    18    1
@<TRIPOS>MOLECULE
*****
 40 43 0 0 0
SMALL
GASTEIGER

@<TRIPOS>ATOM
      1 C          63.9340   86.4220   15.6779 C.ar    1  UNL1        0.0611
      2 C          63.0729   86.0315   16.8424 C.ar    1  UNL1        0.1037
      3 N          62.5625   87.2881   17.4832 N.ar    1  UNL1       -0.2269
      4 C          63.1082   88.4550   16.7148 C.ar    1  UNL1        0.1407
      5 N          62.9427   89.9359   16.8869 N.ar    1  UNL1       -0.3374
      6 C          63.6249   90.8814   15.9433 C.ar    1  UNL1        0.0734
      7 C          64.4726   90.3461   14.8275 C.ar    1  UNL1        0.0171
      8 C          64.6380   88.8653   14.6554 C.ar    1  UNL1        0.0046
      9 C          63.9558   87.9197   15.5990 C.ar    1  UNL1        0.0386
     10 H          62.3864   90.2872   17.6193 H       1  UNL1        0.1674
     11 C          65.1548   91.2918   13.8839 C.ar    1  UNL1        0.0015
     12 C          66.4701   91.9072   14.2593 C.ar    1  UNL1        0.0014
     13 C          67.1523   92.8529   13.3157 C.ar    1  UNL1        0.0158
     14 C          66.5191   93.1830   11.9965 C.ar    1  UNL1        0.0644
     15 C          65.2037   92.5675   11.6211 C.ar    1  UNL1        0.0158
     16 C          64.5216   91.6219   12.5647 C.ar    1  UNL1        0.0014
     17 N          67.2013   94.1286   11.0529 N.pl3   1  UNL1       -0.2187
     18 H          68.1624   94.0284   10.8649 H       1  UNL1        0.1734
     19 S          66.4189   95.2267   10.3957 S.O2    1  UNL1        0.0558
     20 C          65.6365   96.3250    9.7385 C.3     1  UNL1        0.1996
     21 O          66.6721   94.6045    9.0546 O.2     1  UNL1       -0.1544
     22 O          66.1658   95.8490   11.7368 O.2     1  UNL1       -0.1544
     23 C          64.6480   85.4800   14.7543 C.2     1  UNL1        0.2015
     24 O          66.1314   85.2932   14.8735 O.2     1  UNL1       -0.2864
     25 C          62.5504   84.6920   11.4787 C.ar    1  UNL1        0.0920
     26 C          62.3392   83.2142   11.6260 C.ar    1  UNL1        0.0204
     27 C          62.8975   82.4918   12.8161 C.ar    1  UNL1        0.0312
     28 C          63.6671   83.2470   13.8589 C.ar    1  UNL1        0.1454
     29 F          64.2254   82.5245   15.0490 F       1  UNL1       -0.2040
     30 C          63.8783   84.7247   13.7115 C.ar    1  UNL1        0.0951
     31 C          63.3200   85.4471   12.5214 C.ar    1  UNL1        0.1598
     32 F          63.5313   86.9249   12.3742 F       1  UNL1       -0.2026
     33 N          61.9921   85.4144   10.2886 N.pl3   1  UNL1       -0.2166
     34 H          61.8677   84.9370    9.4367 H       1  UNL1        0.1734
     35 S          61.6234   86.8644   10.3965 S.O2    1  UNL1        0.0540
     36 O          60.7616   86.5567   11.5851 O.2     1  UNL1       -0.1545
     37 O          62.4851   87.1720    9.2079 O.2     1  UNL1       -0.1545
     38 C          61.2547   88.3143   10.5044 C.3     1  UNL1        0.1724
     39 C          62.3268   90.6355   10.0430 C.3     1  UNL1        0.0019
     40 C          62.3124   89.3376   10.7948 C.3     1  UNL1        0.0273
@<TRIPOS>BOND
     1    39    40    1
     2    40    38    1
     3    38    35    1
     4    35    36    2
     5    35    37    2
     6    35    33    1
     7    33    25    1
     8    25    26   ar
     9    26    27   ar
    10    27    28   ar
    11    28    29    1
    12    28    30   ar
    13    30    23    1
    14    23    24    2
    15    23     1    1
    16     1     2   ar
    17     2     3   ar
    18     3     4   ar
    19     4     5   ar
    20     5     6   ar
    21     6     7   ar
    22     7    11    1
    23    11    12   ar
    24    12    13   ar
    25    13    14   ar
    26    14    17    1
    27    17    19    1
    28    19    20    1
    29    19    21    2
    30    19    22    2
    31    14    15   ar
    32    15    16   ar
    33     7     8   ar
    34     8     9   ar
    35    30    31   ar
    36    31    32    1
    37    31    25   ar
    38     9     1   ar
    39     9     4    1
    40    16    11   ar
    41    33    34    1
    42     5    10    1
    43    17    18    1
@<TRIPOS>MOLECULE
*****
 40 43 0 0 0
SMALL
GASTEIGER

@<TRIPOS>ATOM
      1 C          61.5291   86.5485    9.2980 C.ar    1  UNL1        0.0611
      2 C          60.1326   86.2965    8.8119 C.ar    1  UNL1        0.1037
      3 N          59.3304   87.5432    9.0400 N.ar    1  UNL1       -0.2269
      4 C          60.2310   88.5658    9.6672 C.ar    1  UNL1        0.1407
      5 N          59.9893   89.9772   10.1136 N.ar    1  UNL1       -0.3374
      6 C          61.1066   90.7739   10.7195 C.ar    1  UNL1        0.0734
      7 C          62.4654   90.1591   10.8789 C.ar    1  UNL1        0.0171
      8 C          62.7071   88.7476   10.4325 C.ar    1  UNL1        0.0046
      9 C          61.5899   87.9510    9.8266 C.ar    1  UNL1        0.0386
     10 H          59.0975   90.3807   10.0090 H       1  UNL1        0.1674
     11 C          63.5827   90.9558   11.4849 C.ar    1  UNL1        0.0015
     12 C          64.3422   91.9406   10.6463 C.ar    1  UNL1        0.0014
     13 C          65.4594   92.7373   11.2522 C.ar    1  UNL1        0.0158
     14 C          65.8171   92.5492   12.6967 C.ar    1  UNL1        0.0644
     15 C          65.0575   91.5643   13.5353 C.ar    1  UNL1        0.0158
     16 C          63.9404   90.7677   12.9294 C.ar    1  UNL1        0.0014
     17 N          66.9343   93.3459   13.3027 N.pl3   1  UNL1       -0.2187
     18 H          67.1117   94.2622   12.9894 H       1  UNL1        0.1734
     19 S          67.7811   92.7464   14.3859 S.O2    1  UNL1        0.0558
     20 C          68.6280   92.1470   15.4693 C.3     1  UNL1        0.1996
     21 O          68.5417   91.9627   13.3577 O.2     1  UNL1       -0.1544
     22 O          67.0205   93.5301   15.4142 O.2     1  UNL1       -0.1544
     23 C          62.6653   85.5699    9.2619 C.2     1  UNL1        0.2015
     24 O          63.5057   85.4416    8.0262 O.2     1  UNL1       -0.2864
     25 C          62.6299   84.1949   12.9846 C.ar    1  UNL1        0.0920
     26 C          63.5526   83.0187   12.8611 C.ar    1  UNL1        0.0204
     27 C          64.1795   82.6929   11.5380 C.ar    1  UNL1        0.0312
     28 C          63.8837   83.5432   10.3382 C.ar    1  UNL1        0.1454
     29 F          64.5106   83.2174    9.0150 F       1  UNL1       -0.2040
     30 C          62.9611   84.7194   10.4617 C.ar    1  UNL1        0.0951
     31 C          62.3342   85.0452   11.7849 C.ar    1  UNL1        0.1598
     32 F          61.4115   86.2215   11.9083 F       1  UNL1       -0.2026
     33 N          62.0030   84.5207   14.3078 N.pl3   1  UNL1       -0.2166
     34 H          61.0554   84.3083   14.4692 H       1  UNL1        0.1734
     35 S          62.8201   85.1702   15.3852 S.O2    1  UNL1        0.0540
     36 O          62.2203   84.2420   16.3995 O.2     1  UNL1       -0.1545
     37 O          63.4198   86.0983   14.3709 O.2     1  UNL1       -0.1545
     38 C          63.6371   85.8197   16.4624 C.3     1  UNL1        0.1724
     39 C          63.0072   88.2391   17.1695 C.3     1  UNL1        0.0019
     40 C          62.9871   86.7623   17.4315 C.3     1  UNL1        0.0273
@<TRIPOS>BOND
     1    39    40    1
     2    40    38    1
     3    38    35    1
     4    35    36    2
     5    35    37    2
     6    35    33    1
     7    33    25    1
     8    25    26   ar
     9    26    27   ar
    10    27    28   ar
    11    28    29    1
    12    28    30   ar
    13    30    23    1
    14    23    24    2
    15    23     1    1
    16     1     2   ar
    17     2     3   ar
    18     3     4   ar
    19     4     5   ar
    20     5     6   ar
    21     6     7   ar
    22     7    11    1
    23    11    12   ar
    24    12    13   ar
    25    13    14   ar
    26    14    17    1
    27    17    19    1
    28    19    20    1
    29    19    21    2
    30    19    22    2
    31    14    15   ar
    32    15    16   ar
    33     7     8   ar
    34     8     9   ar
    35    30    31   ar
    36    31    32    1
    37    31    25   ar
    38     9     1   ar
    39     9     4    1
    40    16    11   ar
    41    33    34    1
    42     5    10    1
    43    17    18    1
@<TRIPOS>MOLECULE
*****
 40 43 0 0 0
SMALL
GASTEIGER

@<TRIPOS>ATOM
      1 C          64.0547   89.0524   13.9648 C.ar    1  UNL1        0.0611
      2 C          64.6979   88.0680   14.8961 C.ar    1  UNL1        0.1037
      3 N          64.3511   86.6875   14.4228 N.ar    1  UNL1       -0.2269
      4 C          63.4936   86.8187   13.1991 C.ar    1  UNL1        0.1407
      5 N          62.8560   85.7961   12.3060 N.ar    1  UNL1       -0.3374
      6 C          62.0352   86.2351   11.1298 C.ar    1  UNL1        0.0734
      7 C          61.8520   87.6968   10.8467 C.ar    1  UNL1        0.0171
      8 C          62.4896   88.7193   11.7398 C.ar    1  UNL1        0.0046
      9 C          63.3105   88.2803   12.9160 C.ar    1  UNL1        0.0386
     10 H          62.9762   84.8368   12.4917 H       1  UNL1        0.1674
     11 C          61.0311   88.1358    9.6704 C.ar    1  UNL1        0.0015
     12 C          60.6906   89.5857    9.4928 C.ar    1  UNL1        0.0014
     13 C          59.8697   90.0247    8.3165 C.ar    1  UNL1        0.0158
     14 C          59.3895   89.0137    7.3179 C.ar    1  UNL1        0.0644
     15 C          59.7301   87.5637    7.4956 C.ar    1  UNL1        0.0158
     16 C          60.5509   87.1248    8.6718 C.ar    1  UNL1        0.0014
     17 N          58.5686   89.4527    6.1417 N.pl3   1  UNL1       -0.2187
     18 H          57.8323   88.8859    5.8163 H       1  UNL1        0.1734
     19 S          58.8697   90.7551    5.4613 S.O2    1  UNL1        0.0558
     20 C          59.1707   92.0576    4.7809 C.3     1  UNL1        0.1996
     21 O          57.4230   91.1397    5.5575 O.2     1  UNL1       -0.1544
     22 O          60.3163   90.3705    5.3652 O.2     1  UNL1       -0.1544
     23 C          64.1407   90.5466   14.0648 C.2     1  UNL1        0.2015
     24 O          63.1177   91.3054   14.8569 O.2     1  UNL1       -0.2864
     25 C          66.1055   92.6901   11.3638 C.ar    1  UNL1        0.0920
     26 C          67.4679   92.7528   11.9881 C.ar    1  UNL1        0.0204
     27 C          67.7213   92.0801   13.3046 C.ar    1  UNL1        0.0312
     28 C          66.6123   91.3447   13.9969 C.ar    1  UNL1        0.1454
     29 F          66.8657   90.6719   15.3134 F       1  UNL1       -0.2040
     30 C          65.2498   91.2820   13.3725 C.ar    1  UNL1        0.0951
     31 C          64.9965   91.9547   12.0560 C.ar    1  UNL1        0.1598
     32 F          63.6340   91.8920   11.4317 F       1  UNL1       -0.2026
     33 N          65.8521   93.3628   10.0472 N.pl3   1  UNL1       -0.2166
     34 H          65.2368   92.9545    9.3962 H       1  UNL1        0.1734
     35 S          66.5363   94.6576    9.7227 S.O2    1  UNL1        0.0540
     36 O          67.4724   93.9322    8.8020 O.2     1  UNL1       -0.1545
     37 O          65.6003   95.3830   10.6433 O.2     1  UNL1       -0.1545
     38 C          67.2205   95.9524    9.3982 C.3     1  UNL1        0.1724
     39 C          65.7826   96.7324    7.3797 C.3     1  UNL1        0.0019
     40 C          67.1255   96.5248    8.0149 C.3     1  UNL1        0.0273
@<TRIPOS>BOND
     1    39    40    1
     2    40    38    1
     3    38    35    1
     4    35    36    2
     5    35    37    2
     6    35    33    1
     7    33    25    1
     8    25    26   ar
     9    26    27   ar
    10    27    28   ar
    11    28    29    1
    12    28    30   ar
    13    30    23    1
    14    23    24    2
    15    23     1    1
    16     1     2   ar
    17     2     3   ar
    18     3     4   ar
    19     4     5   ar
    20     5     6   ar
    21     6     7   ar
    22     7    11    1
    23    11    12   ar
    24    12    13   ar
    25    13    14   ar
    26    14    17    1
    27    17    19    1
    28    19    20    1
    29    19    21    2
    30    19    22    2
    31    14    15   ar
    32    15    16   ar
    33     7     8   ar
    34     8     9   ar
    35    30    31   ar
    36    31    32    1
    37    31    25   ar
    38     9     1   ar
    39     9     4    1
    40    16    11   ar
    41    33    34    1
    42     5    10    1
    43    17    18    1
@<TRIPOS>MOLECULE
*****
 40 43 0 0 0
SMALL
GASTEIGER

@<TRIPOS>ATOM
      1 C          61.8306   86.4188   10.5463 C.ar    1  UNL1        0.0611
      2 C          60.5328   86.1560    9.8417 C.ar    1  UNL1        0.1037
      3 N          59.8538   87.4740    9.6141 N.ar    1  UNL1       -0.2269
      4 C          60.7320   88.5514   10.1780 C.ar    1  UNL1        0.1407
      5 N          60.5770   90.0420   10.2412 N.ar    1  UNL1       -0.3374
      6 C          61.6438   90.8804   10.8807 C.ar    1  UNL1        0.0734
      7 C          62.8656   90.2283   11.4568 C.ar    1  UNL1        0.0171
      8 C          63.0206   88.7377   11.3936 C.ar    1  UNL1        0.0046
      9 C          61.9538   87.8992   10.7541 C.ar    1  UNL1        0.0386
     10 H          59.7752   90.4700    9.8631 H       1  UNL1        0.1674
     11 C          63.9324   91.0668   12.0963 C.ar    1  UNL1        0.0015
     12 C          64.6502   92.1092   11.2912 C.ar    1  UNL1        0.0014
     13 C          65.7171   92.9477   11.9307 C.ar    1  UNL1        0.0158
     14 C          66.0660   92.7438   13.3752 C.ar    1  UNL1        0.0644
     15 C          65.3481   91.7014   14.1803 C.ar    1  UNL1        0.0158
     16 C          64.2814   90.8629   13.5408 C.ar    1  UNL1        0.0014
     17 N          67.1328   93.5822   14.0147 N.pl3   1  UNL1       -0.2187
     18 H          67.2293   94.5298   13.7658 H       1  UNL1        0.1734
     19 S          68.0524   92.9769   15.0335 S.O2    1  UNL1        0.0558
     20 C          68.9720   92.3715   16.0522 C.3     1  UNL1        0.1996
     21 O          67.2220   93.5678   16.1341 O.2     1  UNL1       -0.1544
     22 O          68.8827   92.3860   13.9328 O.2     1  UNL1       -0.1544
     23 C          62.8299   85.3831   10.9689 C.2     1  UNL1        0.2015
     24 O          63.6990   84.7170    9.9438 O.2     1  UNL1       -0.2864
     25 C          62.6461   83.2906   14.3362 C.ar    1  UNL1        0.0920
     26 C          63.2206   84.2738   15.3126 C.ar    1  UNL1        0.0204
     27 C          63.6648   85.6267   14.8411 C.ar    1  UNL1        0.0312
     28 C          63.5346   85.9965   13.3933 C.ar    1  UNL1        0.1454
     29 F          63.9788   87.3494   12.9218 F       1  UNL1       -0.2040
     30 C          62.9602   85.0133   12.4169 C.ar    1  UNL1        0.0951
     31 C          62.5159   83.6604   12.8884 C.ar    1  UNL1        0.1598
     32 F          61.9415   82.6772   11.9119 F       1  UNL1       -0.2026
     33 N          62.2019   81.9377   14.8076 N.pl3   1  UNL1       -0.2166
     34 H          61.8641   81.8226   15.7252 H       1  UNL1        0.1734
     35 S          62.2724   80.7602   13.8811 S.O2    1  UNL1        0.0540
     36 O          63.7707   80.8193   13.9200 O.2     1  UNL1       -0.1545
     37 O          60.7741   80.7010   13.8423 O.2     1  UNL1       -0.1545
     38 C          62.3428   79.5827   12.9546 C.3     1  UNL1        0.1724
     39 C          62.7601   78.6123   10.5809 C.3     1  UNL1        0.0019
     40 C          62.7710   79.7739   11.5298 C.3     1  UNL1        0.0273
@<TRIPOS>BOND
     1    39    40    1
     2    40    38    1
     3    38    35    1
     4    35    36    2
     5    35    37    2
     6    35    33    1
     7    33    25    1
     8    25    26   ar
     9    26    27   ar
    10    27    28   ar
    11    28    29    1
    12    28    30   ar
    13    30    23    1
    14    23    24    2
    15    23     1    1
    16     1     2   ar
    17     2     3   ar
    18     3     4   ar
    19     4     5   ar
    20     5     6   ar
    21     6     7   ar
    22     7    11    1
    23    11    12   ar
    24    12    13   ar
    25    13    14   ar
    26    14    17    1
    27    17    19    1
    28    19    20    1
    29    19    21    2
    30    19    22    2
    31    14    15   ar
    32    15    16   ar
    33     7     8   ar
    34     8     9   ar
    35    30    31   ar
    36    31    32    1
    37    31    25   ar
    38     9     1   ar
    39     9     4    1
    40    16    11   ar
    41    33    34    1
    42     5    10    1
    43    17    18    1
@<TRIPOS>MOLECULE
*****
 40 43 0 0 0
SMALL
GASTEIGER

@<TRIPOS>ATOM
      1 C          63.4633   84.4763   14.1803 C.ar    1  UNL1        0.0611
      2 C          62.8502   83.6387   15.2632 C.ar    1  UNL1        0.1037
      3 N          62.5532   84.5340   16.4295 N.ar    1  UNL1       -0.2269
      4 C          62.9826   85.9248   16.0674 C.ar    1  UNL1        0.1407
      5 N          62.9342   87.2191   16.8240 N.ar    1  UNL1       -0.3374
      6 C          63.4482   88.4778   16.1904 C.ar    1  UNL1        0.0734
      7 C          64.0107   88.4422   14.8003 C.ar    1  UNL1        0.0171
      8 C          64.0591   87.1479   14.0438 C.ar    1  UNL1        0.0046
      9 C          63.5451   85.8892   14.6774 C.ar    1  UNL1        0.0386
     10 H          62.5650   87.2425   17.7363 H       1  UNL1        0.1674
     11 C          64.5247   89.7010   14.1667 C.ar    1  UNL1        0.0015
     12 C          63.8958   90.2174   12.9067 C.ar    1  UNL1        0.0014
     13 C          64.4098   91.4762   12.2732 C.ar    1  UNL1        0.0158
     14 C          65.5528   92.2184   12.8997 C.ar    1  UNL1        0.0644
     15 C          66.1818   91.7019   14.1597 C.ar    1  UNL1        0.0158
     16 C          65.6678   90.4432   14.7932 C.ar    1  UNL1        0.0014
     17 N          66.0669   93.4771   12.2662 N.pl3   1  UNL1       -0.2187
     18 H          66.0136   94.3308   12.7536 H       1  UNL1        0.1734
     19 S          66.6621   93.4351   10.8900 S.O2    1  UNL1        0.0558
     20 C          67.2574   93.3931    9.5137 C.3     1  UNL1        0.1996
     21 O          65.6315   94.4156   10.4143 O.2     1  UNL1       -0.1544
     22 O          67.6927   92.4546   11.3657 O.2     1  UNL1       -0.1544
     23 C          63.9151   83.9870   12.8363 C.2     1  UNL1        0.2015
     24 O          64.9834   82.9384   12.7401 O.2     1  UNL1       -0.2864
     25 C          61.5049   86.0301   10.4349 C.ar    1  UNL1        0.0920
     26 C          62.0658   85.6646    9.0926 C.ar    1  UNL1        0.0204
     27 C          63.2431   84.7399    8.9981 C.ar    1  UNL1        0.0312
     28 C          63.8596   84.1807   10.2460 C.ar    1  UNL1        0.1454
     29 F          65.0369   83.2560   10.1516 F       1  UNL1       -0.2040
     30 C          63.2987   84.5462   11.5883 C.ar    1  UNL1        0.0951
     31 C          62.1214   85.4709   11.6827 C.ar    1  UNL1        0.1598
     32 F          61.5605   85.8363   13.0251 F       1  UNL1       -0.2026
     33 N          60.3276   86.9548   10.5293 N.pl3   1  UNL1       -0.2166
     34 H          59.6755   86.8485   11.2592 H       1  UNL1        0.1734
     35 S          60.1438   88.0413    9.5117 S.O2    1  UNL1        0.0540
     36 O          59.1455   87.1908    8.7838 O.2     1  UNL1       -0.1545
     37 O          61.1422   88.8919   10.2396 O.2     1  UNL1       -0.1545
     38 C          59.9602   89.1279    8.4941 C.3     1  UNL1        0.1724
     39 C          59.2400   89.8766    6.1127 C.3     1  UNL1        0.0019
     40 C          59.3268   88.8167    7.1705 C.3     1  UNL1        0.0273
@<TRIPOS>BOND
     1    39    40    1
     2    40    38    1
     3    38    35    1
     4    35    36    2
     5    35    37    2
     6    35    33    1
     7    33    25    1
     8    25    26   ar
     9    26    27   ar
    10    27    28   ar
    11    28    29    1
    12    28    30   ar
    13    30    23    1
    14    23    24    2
    15    23     1    1
    16     1     2   ar
    17     2     3   ar
    18     3     4   ar
    19     4     5   ar
    20     5     6   ar
    21     6     7   ar
    22     7    11    1
    23    11    12   ar
    24    12    13   ar
    25    13    14   ar
    26    14    17    1
    27    17    19    1
    28    19    20    1
    29    19    21    2
    30    19    22    2
    31    14    15   ar
    32    15    16   ar
    33     7     8   ar
    34     8     9   ar
    35    30    31   ar
    36    31    32    1
    37    31    25   ar
    38     9     1   ar
    39     9     4    1
    40    16    11   ar
    41    33    34    1
    42     5    10    1
    43    17    18    1
@<TRIPOS>MOLECULE
*****
 40 43 0 0 0
SMALL
GASTEIGER

@<TRIPOS>ATOM
      1 C          63.9754   87.9870   14.0785 C.ar    1  UNL1        0.0611
      2 C          64.6576   86.9225   14.8857 C.ar    1  UNL1        0.1037
      3 N          64.3803   85.5992   14.2361 N.ar    1  UNL1       -0.2269
      4 C          63.5268   85.8459   13.0275 C.ar    1  UNL1        0.1407
      5 N          62.9451   84.9173   12.0031 N.ar    1  UNL1       -0.3374
      6 C          62.1132   85.4645   10.8813 C.ar    1  UNL1        0.0734
      7 C          61.8630   86.9403   10.7840 C.ar    1  UNL1        0.0171
      8 C          62.4446   87.8688   11.8083 C.ar    1  UNL1        0.0046
      9 C          63.2765   87.3216   12.9301 C.ar    1  UNL1        0.0386
     10 H          63.1093   83.9487   12.0670 H       1  UNL1        0.1674
     11 C          61.0310   87.4875    9.6621 C.ar    1  UNL1        0.0015
     12 C          60.4256   86.5563    8.6540 C.ar    1  UNL1        0.0014
     13 C          59.5936   87.1035    7.5322 C.ar    1  UNL1        0.0158
     14 C          59.3672   88.5819    7.4184 C.ar    1  UNL1        0.0644
     15 C          59.9726   89.5132    8.4266 C.ar    1  UNL1        0.0158
     16 C          60.8045   88.9659    9.5484 C.ar    1  UNL1        0.0014
     17 N          58.5353   89.1292    6.2967 N.pl3   1  UNL1       -0.2187
     18 H          57.7573   88.6229    5.9684 H       1  UNL1        0.1734
     19 S          58.8887   90.4477    5.6749 S.O2    1  UNL1        0.0558
     20 C          59.2422   91.7662    5.0532 C.3     1  UNL1        0.1996
     21 O          57.4518   90.8706    5.7549 O.2     1  UNL1       -0.1544
     22 O          60.3256   90.0247    5.5950 O.2     1  UNL1       -0.1544
     23 C          63.9896   89.4586   14.3688 C.2     1  UNL1        0.2015
     24 O          63.7870   89.9483   15.7720 O.2     1  UNL1       -0.2864
     25 C          65.7568   92.0894   11.9800 C.ar    1  UNL1        0.0920
     26 C          64.6399   92.4044   11.0297 C.ar    1  UNL1        0.0204
     27 C          63.3062   91.7375   11.1924 C.ar    1  UNL1        0.0312
     28 C          63.0894   90.7556   12.3053 C.ar    1  UNL1        0.1454
     29 F          61.7557   90.0887   12.4680 F       1  UNL1       -0.2040
     30 C          64.2063   90.4406   13.2557 C.ar    1  UNL1        0.0951
     31 C          65.5400   91.1075   13.0930 C.ar    1  UNL1        0.1598
     32 F          66.6570   90.7925   14.0434 F       1  UNL1       -0.2026
     33 N          67.0905   92.7564   11.8174 N.pl3   1  UNL1       -0.2166
     34 H          67.7274   92.7729   12.5679 H       1  UNL1        0.1734
     35 S          67.4538   93.3980   10.5111 S.O2    1  UNL1        0.0540
     36 O          67.8469   92.0585    9.9624 O.2     1  UNL1       -0.1545
     37 O          67.0607   94.7376   11.0599 O.2     1  UNL1       -0.1545
     38 C          67.8170   94.0398    9.2050 C.3     1  UNL1        0.1724
     39 C          66.7362   95.9741    7.8482 C.3     1  UNL1        0.0019
     40 C          67.5785   95.5062    8.9978 C.3     1  UNL1        0.0273
@<TRIPOS>BOND
     1    39    40    1
     2    40    38    1
     3    38    35    1
     4    35    36    2
     5    35    37    2
     6    35    33    1
     7    33    25    1
     8    25    26   ar
     9    26    27   ar
    10    27    28   ar
    11    28    29    1
    12    28    30   ar
    13    30    23    1
    14    23    24    2
    15    23     1    1
    16     1     2   ar
    17     2     3   ar
    18     3     4   ar
    19     4     5   ar
    20     5     6   ar
    21     6     7   ar
    22     7    11    1
    23    11    12   ar
    24    12    13   ar
    25    13    14   ar
    26    14    17    1
    27    17    19    1
    28    19    20    1
    29    19    21    2
    30    19    22    2
    31    14    15   ar
    32    15    16   ar
    33     7     8   ar
    34     8     9   ar
    35    30    31   ar
    36    31    32    1
    37    31    25   ar
    38     9     1   ar
    39     9     4    1
    40    16    11   ar
    41    33    34    1
    42     5    10    1
    43    17    18    1
@<TRIPOS>MOLECULE
*****
 40 43 0 0 0
SMALL
GASTEIGER

@<TRIPOS>ATOM
      1 C          64.6433   91.0432   15.0077 C.ar    1  UNL1        0.0611
      2 C          64.2317   92.0282   16.0613 C.ar    1  UNL1        0.1037
      3 N          63.5301   91.2743   17.1519 N.ar    1  UNL1       -0.2269
      4 C          63.5081   89.8233   16.7722 C.ar    1  UNL1        0.1407
      5 N          62.9504   88.6137   17.4620 N.ar    1  UNL1       -0.3374
      6 C          63.0807   87.2613   16.8266 C.ar    1  UNL1        0.0734
      7 C          63.7687   87.1184   15.5013 C.ar    1  UNL1        0.0171
      8 C          64.3263   88.3280   14.8115 C.ar    1  UNL1        0.0046
      9 C          64.1960   89.6805   15.4470 C.ar    1  UNL1        0.0386
     10 H          62.4989   88.7075   18.3318 H       1  UNL1        0.1674
     11 C          63.8990   85.7659   14.8659 C.ar    1  UNL1        0.0015
     12 C          63.6162   85.5942   13.4028 C.ar    1  UNL1        0.0014
     13 C          63.7465   84.2417   12.7674 C.ar    1  UNL1        0.0158
     14 C          64.1595   83.0609   13.5950 C.ar    1  UNL1        0.0644
     15 C          64.4423   83.2326   15.0581 C.ar    1  UNL1        0.0158
     16 C          64.3120   84.5851   15.6935 C.ar    1  UNL1        0.0014
     17 N          64.2898   81.7084   12.9596 N.pl3   1  UNL1       -0.2187
     18 H          65.1080   81.4737   12.4650 H       1  UNL1        0.1734
     19 S          63.1735   80.7135   13.0780 S.O2    1  UNL1        0.0558
     20 C          62.0571   79.7186   13.1962 C.3     1  UNL1        0.1996
     21 O          63.7362   80.2374   14.3843 O.2     1  UNL1       -0.1544
     22 O          62.6108   81.1896   11.7716 O.2     1  UNL1       -0.1544
     23 C          65.3738   91.3644   13.7376 C.2     1  UNL1        0.2015
     24 O          66.8527   91.6135   13.7654 O.2     1  UNL1       -0.2864
     25 C          62.5696   90.7893   10.9887 C.ar    1  UNL1        0.0920
     26 C          63.1286   91.5808    9.8437 C.ar    1  UNL1        0.0204
     27 C          64.4359   92.3001    9.9966 C.ar    1  UNL1        0.0312
     28 C          65.1844   92.2280   11.2945 C.ar    1  UNL1        0.1454
     29 F          66.4917   92.9474   11.4474 F       1  UNL1       -0.2040
     30 C          64.6254   91.4365   12.4395 C.ar    1  UNL1        0.0951
     31 C          63.3181   90.7172   12.2866 C.ar    1  UNL1        0.1598
     32 F          62.7591   89.9257   13.4317 F       1  UNL1       -0.2026
     33 N          61.2623   90.0699   10.8358 N.pl3   1  UNL1       -0.2166
     34 H          60.4432   90.4483   11.2298 H       1  UNL1        0.1734
     35 S          61.2029   88.7741   10.0826 S.O2    1  UNL1        0.0540
     36 O          61.8547   88.0730   11.2374 O.2     1  UNL1       -0.1545
     37 O          60.5511   89.4752    8.9278 O.2     1  UNL1       -0.1545
     38 C          61.1435   87.4784    9.3293 C.3     1  UNL1        0.1724
     39 C          62.7770   85.5930    8.6032 C.3     1  UNL1        0.0019
     40 C          62.0774   86.3600    9.6859 C.3     1  UNL1        0.0273
@<TRIPOS>BOND
     1    39    40    1
     2    40    38    1
     3    38    35    1
     4    35    36    2
     5    35    37    2
     6    35    33    1
     7    33    25    1
     8    25    26   ar
     9    26    27   ar
    10    27    28   ar
    11    28    29    1
    12    28    30   ar
    13    30    23    1
    14    23    24    2
    15    23     1    1
    16     1     2   ar
    17     2     3   ar
    18     3     4   ar
    19     4     5   ar
    20     5     6   ar
    21     6     7   ar
    22     7    11    1
    23    11    12   ar
    24    12    13   ar
    25    13    14   ar
    26    14    17    1
    27    17    19    1
    28    19    20    1
    29    19    21    2
    30    19    22    2
    31    14    15   ar
    32    15    16   ar
    33     7     8   ar
    34     8     9   ar
    35    30    31   ar
    36    31    32    1
    37    31    25   ar
    38     9     1   ar
    39     9     4    1
    40    16    11   ar
    41    33    34    1
    42     5    10    1
    43    17    18    1
@<TRIPOS>MOLECULE
*****
 40 43 0 0 0
SMALL
GASTEIGER

@<TRIPOS>ATOM
      1 C          61.6227   86.2701    9.4942 C.ar    1  UNL1        0.0611
      2 C          60.2216   85.8103    9.2195 C.ar    1  UNL1        0.1037
      3 N          59.3009   86.9745    9.4363 N.ar    1  UNL1       -0.2269
      4 C          60.1330   88.1538    9.8450 C.ar    1  UNL1        0.1407
      5 N          59.7695   89.5677   10.1893 N.ar    1  UNL1       -0.3374
      6 C          60.8409   90.5462   10.5693 C.ar    1  UNL1        0.0734
      7 C          62.2759   90.1108   10.6050 C.ar    1  UNL1        0.0171
      8 C          62.6394   88.6969   10.2608 C.ar    1  UNL1        0.0046
      9 C          61.5680   87.7184    9.8808 C.ar    1  UNL1        0.0386
     10 H          58.8277   89.8535   10.1658 H       1  UNL1        0.1674
     11 C          63.3474   91.0895   10.9851 C.ar    1  UNL1        0.0015
     12 C          63.8617   92.0692    9.9724 C.ar    1  UNL1        0.0014
     13 C          64.9331   93.0479   10.3524 C.ar    1  UNL1        0.0158
     14 C          65.4902   93.0467   11.7451 C.ar    1  UNL1        0.0644
     15 C          64.9758   92.0669   12.7578 C.ar    1  UNL1        0.0158
     16 C          63.9044   91.0883   12.3778 C.ar    1  UNL1        0.0014
     17 N          66.5616   94.0252   12.1252 N.pl3   1  UNL1       -0.2187
     18 H          67.1148   93.8641   12.9234 H       1  UNL1        0.1734
     19 S          66.7901   95.2494   11.2890 S.O2    1  UNL1        0.0558
     20 C          67.0186   96.4735   10.4527 C.3     1  UNL1        0.1996
     21 O          65.9488   96.0531   12.2357 O.2     1  UNL1       -0.1544
     22 O          67.6314   94.4457   10.3423 O.2     1  UNL1       -0.1544
     23 C          62.8612   85.4291    9.3990 C.2     1  UNL1        0.2015
     24 O          63.8379   85.6560    8.2835 O.2     1  UNL1       -0.2864
     25 C          62.8831   83.4587   12.8439 C.ar    1  UNL1        0.0920
     26 C          63.6463   82.2256   12.4603 C.ar    1  UNL1        0.0204
     27 C          64.1478   82.0604   11.0563 C.ar    1  UNL1        0.0312
     28 C          63.8861   83.1282   10.0359 C.ar    1  UNL1        0.1454
     29 F          64.3876   82.9630    8.6319 F       1  UNL1       -0.2040
     30 C          63.1229   84.3612   10.4195 C.ar    1  UNL1        0.0951
     31 C          62.6214   84.5264   11.8235 C.ar    1  UNL1        0.1598
     32 F          61.8582   85.7595   12.2070 F       1  UNL1       -0.2026
     33 N          62.3817   83.6239   14.2479 N.pl3   1  UNL1       -0.2166
     34 H          61.6237   83.0825   14.5668 H       1  UNL1        0.1734
     35 S          63.0350   84.6138   15.1660 S.O2    1  UNL1        0.0540
     36 O          61.6848   85.0958   15.6072 O.2     1  UNL1       -0.1545
     37 O          64.3852   84.1319   14.7248 O.2     1  UNL1       -0.1545
     38 C          63.6885   85.6038   16.0841 C.3     1  UNL1        0.1724
     39 C          64.1012   87.4411   14.2940 C.3     1  UNL1        0.0019
     40 C          64.5445   86.6987   15.5197 C.3     1  UNL1        0.0273
@<TRIPOS>BOND
     1    39    40    1
     2    40    38    1
     3    38    35    1
     4    35    36    2
     5    35    37    2
     6    35    33    1
     7    33    25    1
     8    25    26   ar
     9    26    27   ar
    10    27    28   ar
    11    28    29    1
    12    28    30   ar
    13    30    23    1
    14    23    24    2
    15    23     1    1
    16     1     2   ar
    17     2     3   ar
    18     3     4   ar
    19     4     5   ar
    20     5     6   ar
    21     6     7   ar
    22     7    11    1
    23    11    12   ar
    24    12    13   ar
    25    13    14   ar
    26    14    17    1
    27    17    19    1
    28    19    20    1
    29    19    21    2
    30    19    22    2
    31    14    15   ar
    32    15    16   ar
    33     7     8   ar
    34     8     9   ar
    35    30    31   ar
    36    31    32    1
    37    31    25   ar
    38     9     1   ar
    39     9     4    1
    40    16    11   ar
    41    33    34    1
    42     5    10    1
    43    17    18    1
