@<TRIPOS>MOLECULE
*****
 33 37 0 0 0
SMALL
GASTEIGER

@<TRIPOS>ATOM
      1 C          62.2522   89.5863   11.9736 C.3     1  UNL1        0.1096
      2 C          61.6163   90.6342   11.1089 C.3     1  UNL1        0.1622
      3 O          61.0907   90.2694    9.7522 O.3     1  UNL1       -0.3502
      4 C          61.2009   88.8567    9.2601 C.3     1  UNL1        0.1637
      5 C          61.8368   87.8088   10.1247 C.3     1  UNL1        0.1257
      6 N          62.3625   88.1736   11.4815 N.am    1  UNL1       -0.2723
      7 C          62.9983   87.1258   12.3461 C.2     1  UNL1        0.2506
      8 O          63.5240   87.4905   13.7028 O.2     1  UNL1       -0.2699
      9 C          63.1086   85.7131   11.8540 C.ar    1  UNL1        0.0730
     10 C          63.1436   85.4326   10.3809 C.ar    1  UNL1        0.0070
     11 C          63.2539   84.0199    9.8888 C.ar    1  UNL1        0.0116
     12 C          63.3291   82.8877   10.8698 C.ar    1  UNL1        0.0592
     13 CL         63.4394   81.4750   10.3778 Cl      1  UNL1       -0.0822
     14 C          63.2941   83.1681   12.3430 C.ar    1  UNL1        0.0324
     15 C          63.1838   84.5808   12.8351 C.ar    1  UNL1        0.1081
     16 N          63.1488   84.8613   14.3082 N.ar    1  UNL1       -0.1476
     17 N          61.9273   84.8517   15.1788 N.ar    1  UNL1       -0.1447
     18 C          62.3527   85.1852   16.5780 C.ar    1  UNL1        0.1446
     19 C          63.8372   85.4008   16.5722 C.ar    1  UNL1        0.1446
     20 N          64.3291   85.2007   15.1694 N.ar    1  UNL1       -0.1447
     21 C          62.7778   89.9511   13.3302 C.3     1  UNL1        0.0484
     22 C          63.9250   90.5503   16.0367 C.3     1  UNL1        0.0307
     23 C          64.5586   91.1323   14.8080 C.ar    1  UNL1       -0.0256
     24 C          65.7659   92.0138   14.9324 C.ar    1  UNL1       -0.0030
     25 C          66.3995   92.5958   13.7036 C.ar    1  UNL1        0.0206
     26 C          65.8259   92.2962   12.3504 C.ar    1  UNL1        0.1026
     27 C          64.6187   91.4146   12.2260 C.ar    1  UNL1        0.0164
     28 C          63.9850   90.8327   13.4547 C.ar    1  UNL1       -0.0228
     29 N          66.4595   92.8781   11.1216 N.ar    1  UNL1       -0.1478
     30 N          65.9535   94.0556   10.3421 N.ar    1  UNL1       -0.1447
     31 C          66.8916   94.2900    9.1953 C.ar    1  UNL1        0.1446
     32 C          67.9774   93.2574    9.2661 C.ar    1  UNL1        0.1446
     33 N          67.7103   92.3848   10.4566 N.ar    1  UNL1       -0.1447
@<TRIPOS>BOND
     1    22    23    1
     2    23    24   ar
     3    24    25   ar
     4    25    26   ar
     5    26    29    1
     6    29    30   ar
     7    30    31   ar
     8    31    32   ar
     9    32    33   ar
    10    26    27   ar
    11    27    28   ar
    12    28    21    1
    13     1    21    1
    14     1     2    1
    15     2     3    1
    16     3     4    1
    17     4     5    1
    18     5     6    1
    19     6     7   am
    20     7     8    2
    21     7     9    1
    22     9    10   ar
    23    10    11   ar
    24    11    12   ar
    25    12    13    1
    26    12    14   ar
    27    14    15   ar
    28    15    16    1
    29    16    17   ar
    30    17    18   ar
    31    18    19   ar
    32    19    20   ar
    33    28    23   ar
    34     6     1    1
    35    15     9   ar
    36    20    16   ar
    37    33    29   ar
@<TRIPOS>MOLECULE
*****
 33 37 0 0 0
SMALL
GASTEIGER

@<TRIPOS>ATOM
      1 C          61.5277   89.2098   11.6039 C.3     1  UNL1        0.1096
      2 C          60.4997   90.0352   10.8882 C.3     1  UNL1        0.1622
      3 O          59.6818   89.4260    9.7883 O.3     1  UNL1       -0.3502
      4 C          59.8918   87.9913    9.4040 C.3     1  UNL1        0.1637
      5 C          60.9196   87.1659   10.1196 C.3     1  UNL1        0.1257
      6 N          61.7376   87.7751   11.2196 N.am    1  UNL1       -0.2723
      7 C          62.7655   86.9497   11.9352 C.2     1  UNL1        0.2506
      8 O          63.5834   87.5589   13.0352 O.2     1  UNL1       -0.2699
      9 C          62.9754   85.5150   11.5509 C.ar    1  UNL1        0.0730
     10 C          63.0120   85.1240   10.1033 C.ar    1  UNL1        0.0070
     11 C          63.2220   83.6894    9.7190 C.ar    1  UNL1        0.0116
     12 C          63.3953   82.6457   10.7823 C.ar    1  UNL1        0.0592
     13 CL         63.6053   81.2111   10.3980 Cl      1  UNL1       -0.0822
     14 C          63.3587   83.0367   12.2301 C.ar    1  UNL1        0.0324
     15 C          63.1487   84.4714   12.6144 C.ar    1  UNL1        0.1081
     16 N          63.1121   84.8624   14.0620 N.ar    1  UNL1       -0.1476
     17 N          64.2626   85.4023   14.8589 N.ar    1  UNL1       -0.1447
     18 C          63.7801   85.6557   16.2563 C.ar    1  UNL1        0.1446
     19 C          62.3313   85.2725   16.3231 C.ar    1  UNL1        0.1446
     20 N          61.9185   84.7822   14.9670 N.ar    1  UNL1       -0.1447
     21 C          62.3455   89.8190   12.7038 C.3     1  UNL1        0.0484
     22 C          62.6668   90.8852    9.9181 C.3     1  UNL1        0.0307
     23 C          63.6665   91.2424   10.9778 C.ar    1  UNL1       -0.0256
     24 C          64.8269   92.1326   10.6446 C.ar    1  UNL1       -0.0030
     25 C          65.8266   92.4898   11.7044 C.ar    1  UNL1        0.0206
     26 C          65.6660   91.9567   13.0972 C.ar    1  UNL1        0.1026
     27 C          64.5056   91.0665   13.4303 C.ar    1  UNL1        0.0164
     28 C          63.5059   90.7093   12.3707 C.ar    1  UNL1       -0.0228
     29 N          66.6657   92.3139   14.1570 N.ar    1  UNL1       -0.1478
     30 N          66.3682   92.5377   15.6100 N.ar    1  UNL1       -0.1447
     31 C          67.6571   92.8721   16.3009 C.ar    1  UNL1        0.1446
     32 C          68.7510   92.8550   15.2746 C.ar    1  UNL1        0.1446
     33 N          68.1383   92.5100   13.9497 N.ar    1  UNL1       -0.1447
@<TRIPOS>BOND
     1    22    23    1
     2    23    24   ar
     3    24    25   ar
     4    25    26   ar
     5    26    29    1
     6    29    30   ar
     7    30    31   ar
     8    31    32   ar
     9    32    33   ar
    10    26    27   ar
    11    27    28   ar
    12    28    21    1
    13     1    21    1
    14     1     2    1
    15     2     3    1
    16     3     4    1
    17     4     5    1
    18     5     6    1
    19     6     7   am
    20     7     8    2
    21     7     9    1
    22     9    10   ar
    23    10    11   ar
    24    11    12   ar
    25    12    13    1
    26    12    14   ar
    27    14    15   ar
    28    15    16    1
    29    16    17   ar
    30    17    18   ar
    31    18    19   ar
    32    19    20   ar
    33    28    23   ar
    34     6     1    1
    35    15     9   ar
    36    20    16   ar
    37    33    29   ar
@<TRIPOS>MOLECULE
*****
 33 37 0 0 0
SMALL
GASTEIGER

@<TRIPOS>ATOM
      1 C          63.5639   89.2252   12.8452 C.3     1  UNL1        0.1096
      2 C          62.4381   88.3920   12.3080 C.3     1  UNL1        0.1622
      3 O          61.6704   88.8544   11.1052 O.3     1  UNL1       -0.3502
      4 C          62.0284   90.1500   10.4395 C.3     1  UNL1        0.1637
      5 C          63.1541   90.9833   10.9766 C.3     1  UNL1        0.1257
      6 N          63.9219   90.5209   12.1795 N.am    1  UNL1       -0.2723
      7 C          65.0475   91.3541   12.7166 C.2     1  UNL1        0.2506
      8 O          65.8153   90.8917   13.9194 O.2     1  UNL1       -0.2699
      9 C          65.4055   92.6498   12.0509 C.ar    1  UNL1        0.0730
     10 C          64.8451   92.9782   10.6989 C.ar    1  UNL1        0.0070
     11 C          65.2030   94.2739   10.0332 C.ar    1  UNL1        0.0116
     12 C          66.1215   95.2410   10.7195 C.ar    1  UNL1        0.0592
     13 CL         66.4795   96.5367   10.0538 Cl      1  UNL1       -0.0822
     14 C          66.6820   94.9126   12.0715 C.ar    1  UNL1        0.0324
     15 C          66.3240   93.6169   12.7372 C.ar    1  UNL1        0.1081
     16 N          66.8844   93.2884   14.0892 N.ar    1  UNL1       -0.1476
     17 N          68.3134   92.9475   14.3922 N.ar    1  UNL1       -0.1447
     18 C          68.4265   92.6915   15.8659 C.ar    1  UNL1        0.1446
     19 C          67.0673   92.8743   16.4737 C.ar    1  UNL1        0.1446
     20 N          66.1143   93.2432   15.3756 N.ar    1  UNL1       -0.1447
     21 C          64.3316   88.7628   14.0480 C.3     1  UNL1        0.0484
     22 C          63.2336   88.9273   16.8350 C.3     1  UNL1        0.0307
     23 C          63.3694   87.5948   16.1599 C.ar    1  UNL1       -0.0256
     24 C          62.9562   86.3445   16.8782 C.ar    1  UNL1       -0.0030
     25 C          63.0921   85.0119   16.2030 C.ar    1  UNL1        0.0206
     26 C          63.6410   84.9297   14.8095 C.ar    1  UNL1        0.1026
     27 C          64.0542   86.1800   14.0912 C.ar    1  UNL1        0.0164
     28 C          63.9184   87.5125   14.7663 C.ar    1  UNL1       -0.0228
     29 N          63.7768   83.5971   14.1343 N.ar    1  UNL1       -0.1478
     30 N          63.4105   82.2680   14.7253 N.ar    1  UNL1       -0.1447
     31 C          63.7100   81.2091   13.7058 C.ar    1  UNL1        0.1446
     32 C          64.2615   81.8839   12.4849 C.ar    1  UNL1        0.1446
     33 N          64.3028   83.3597   12.7498 N.ar    1  UNL1       -0.1447
@<TRIPOS>BOND
     1    22    23    1
     2    23    24   ar
     3    24    25   ar
     4    25    26   ar
     5    26    29    1
     6    29    30   ar
     7    30    31   ar
     8    31    32   ar
     9    32    33   ar
    10    26    27   ar
    11    27    28   ar
    12    28    21    1
    13     1    21    1
    14     1     2    1
    15     2     3    1
    16     3     4    1
    17     4     5    1
    18     5     6    1
    19     6     7   am
    20     7     8    2
    21     7     9    1
    22     9    10   ar
    23    10    11   ar
    24    11    12   ar
    25    12    13    1
    26    12    14   ar
    27    14    15   ar
    28    15    16    1
    29    16    17   ar
    30    17    18   ar
    31    18    19   ar
    32    19    20   ar
    33    28    23   ar
    34     6     1    1
    35    15     9   ar
    36    20    16   ar
    37    33    29   ar
@<TRIPOS>MOLECULE
*****
 33 37 0 0 0
SMALL
GASTEIGER

@<TRIPOS>ATOM
      1 C          63.2677   89.9069   14.3437 C.3     1  UNL1        0.1096
      2 C          63.1504   90.7407   15.5851 C.3     1  UNL1        0.1622
      3 O          63.1332   90.0816   16.9324 O.3     1  UNL1       -0.3502
      4 C          63.2334   88.5887   17.0383 C.3     1  UNL1        0.1637
      5 C          63.3507   87.7549   15.7969 C.3     1  UNL1        0.1257
      6 N          63.3679   88.4140   14.4496 N.am    1  UNL1       -0.2723
      7 C          63.4852   87.5803   13.2082 C.2     1  UNL1        0.2506
      8 O          63.5023   88.2394   11.8608 O.2     1  UNL1       -0.2699
      9 C          63.5853   86.0874   13.3141 C.ar    1  UNL1        0.0730
     10 C          64.3834   85.4659   14.4218 C.ar    1  UNL1        0.0070
     11 C          64.4835   83.9730   14.5277 C.ar    1  UNL1        0.0116
     12 C          63.7857   83.1016   13.5260 C.ar    1  UNL1        0.0592
     13 CL         63.8858   81.6087   13.6319 Cl      1  UNL1       -0.0822
     14 C          62.9876   83.7230   12.4182 C.ar    1  UNL1        0.0324
     15 C          62.8874   85.2159   12.3123 C.ar    1  UNL1        0.1081
     16 N          62.0894   85.8374   11.2047 N.ar    1  UNL1       -0.1476
     17 N          62.3574   85.6919    9.7360 N.ar    1  UNL1       -0.1447
     18 C          61.3168   86.4780    8.9948 C.ar    1  UNL1        0.1446
     19 C          60.4058   87.1093   10.0055 C.ar    1  UNL1        0.1446
     20 N          60.8832   86.7134   11.3713 N.ar    1  UNL1       -0.1447
     21 C          63.2848   90.5661   12.9964 C.3     1  UNL1        0.0484
     22 C          63.4936   91.5820   10.1813 C.3     1  UNL1        0.0307
     23 C          64.5626   91.9141   11.1797 C.ar    1  UNL1       -0.0256
     24 C          65.7360   92.7543   10.7707 C.ar    1  UNL1       -0.0030
     25 C          66.8050   93.0864   11.7692 C.ar    1  UNL1        0.0206
     26 C          66.7007   92.5784   13.1766 C.ar    1  UNL1        0.1026
     27 C          65.5272   91.7383   13.5857 C.ar    1  UNL1        0.0164
     28 C          64.4582   91.4062   12.5873 C.ar    1  UNL1       -0.0228
     29 N          67.7697   92.9106   14.1751 N.ar    1  UNL1       -0.1478
     30 N          67.6327   93.8557   15.3318 N.ar    1  UNL1       -0.1447
     31 C          68.9417   93.8852   16.0638 C.ar    1  UNL1        0.1446
     32 C          69.8876   92.9582   15.3594 C.ar    1  UNL1        0.1446
     33 N          69.1633   92.3559   14.1922 N.ar    1  UNL1       -0.1447
@<TRIPOS>BOND
     1    22    23    1
     2    23    24   ar
     3    24    25   ar
     4    25    26   ar
     5    26    29    1
     6    29    30   ar
     7    30    31   ar
     8    31    32   ar
     9    32    33   ar
    10    26    27   ar
    11    27    28   ar
    12    28    21    1
    13     1    21    1
    14     1     2    1
    15     2     3    1
    16     3     4    1
    17     4     5    1
    18     5     6    1
    19     6     7   am
    20     7     8    2
    21     7     9    1
    22     9    10   ar
    23    10    11   ar
    24    11    12   ar
    25    12    13    1
    26    12    14   ar
    27    14    15   ar
    28    15    16    1
    29    16    17   ar
    30    17    18   ar
    31    18    19   ar
    32    19    20   ar
    33    28    23   ar
    34     6     1    1
    35    15     9   ar
    36    20    16   ar
    37    33    29   ar
@<TRIPOS>MOLECULE
*****
 33 37 0 0 0
SMALL
GASTEIGER

@<TRIPOS>ATOM
      1 C          62.6785   84.8032   10.8537 C.3     1  UNL1        0.1096
      2 C          63.6908   83.7694   10.4578 C.3     1  UNL1        0.1622
      3 O          64.0806   83.6144    9.0177 O.3     1  UNL1       -0.3502
      4 C          63.4583   84.4933    7.9734 C.3     1  UNL1        0.1637
      5 C          62.4461   85.5270    8.3693 C.3     1  UNL1        0.1257
      6 N          62.0562   85.6821    9.8095 N.am    1  UNL1       -0.2723
      7 C          61.0441   86.7158   10.2054 C.2     1  UNL1        0.2506
      8 O          60.6542   86.8709   11.6456 O.2     1  UNL1       -0.2699
      9 C          60.4217   87.5947    9.1612 C.ar    1  UNL1        0.0730
     10 C          59.5538   86.9939    8.0955 C.ar    1  UNL1        0.0070
     11 C          58.9315   87.8727    7.0512 C.ar    1  UNL1        0.0116
     12 C          59.1771   89.3523    7.0727 C.ar    1  UNL1        0.0592
     13 CL         58.5548   90.2311    6.0285 Cl      1  UNL1       -0.0822
     14 C          60.0451   89.9531    8.1384 C.ar    1  UNL1        0.0324
     15 C          60.6674   89.0743    9.1827 C.ar    1  UNL1        0.1081
     16 N          61.5353   89.6751   10.2483 N.ar    1  UNL1       -0.1476
     17 N          61.1481   89.8952   11.6807 N.ar    1  UNL1       -0.1447
     18 C          62.3163   90.5173   12.3864 C.ar    1  UNL1        0.1446
     19 C          63.4257   90.6817   11.3902 C.ar    1  UNL1        0.1446
     20 N          62.9430   90.1612   10.0688 N.ar    1  UNL1       -0.1447
     21 C          62.2887   84.9582   12.2938 C.3     1  UNL1        0.0484
     22 C          64.2022   83.0669   13.6211 C.3     1  UNL1        0.0307
     23 C          64.2417   84.5292   13.9528 C.ar    1  UNL1       -0.0256
     24 C          65.2379   85.0460   14.9480 C.ar    1  UNL1       -0.0030
     25 C          65.2773   86.5084   15.2796 C.ar    1  UNL1        0.0206
     26 C          64.3206   87.4540   14.6160 C.ar    1  UNL1        0.1026
     27 C          63.3244   86.9373   13.6207 C.ar    1  UNL1        0.0164
     28 C          63.2849   85.4749   13.2891 C.ar    1  UNL1       -0.0228
     29 N          64.3601   88.9164   14.9476 N.ar    1  UNL1       -0.1478
     30 N          65.2869   89.9317   14.3475 N.ar    1  UNL1       -0.1447
     31 C          64.9793   91.2631   14.9665 C.ar    1  UNL1        0.1446
     32 C          63.8624   91.0704   15.9491 C.ar    1  UNL1        0.1446
     33 N          63.4797   89.6201   15.9374 N.ar    1  UNL1       -0.1447
@<TRIPOS>BOND
     1    22    23    1
     2    23    24   ar
     3    24    25   ar
     4    25    26   ar
     5    26    29    1
     6    29    30   ar
     7    30    31   ar
     8    31    32   ar
     9    32    33   ar
    10    26    27   ar
    11    27    28   ar
    12    28    21    1
    13     1    21    1
    14     1     2    1
    15     2     3    1
    16     3     4    1
    17     4     5    1
    18     5     6    1
    19     6     7   am
    20     7     8    2
    21     7     9    1
    22     9    10   ar
    23    10    11   ar
    24    11    12   ar
    25    12    13    1
    26    12    14   ar
    27    14    15   ar
    28    15    16    1
    29    16    17   ar
    30    17    18   ar
    31    18    19   ar
    32    19    20   ar
    33    28    23   ar
    34     6     1    1
    35    15     9   ar
    36    20    16   ar
    37    33    29   ar
@<TRIPOS>MOLECULE
*****
 33 37 0 0 0
SMALL
GASTEIGER

@<TRIPOS>ATOM
      1 C          63.7641   87.1637   15.3578 C.3     1  UNL1        0.1096
      2 C          63.3539   87.9029   16.5969 C.3     1  UNL1        0.1622
      3 O          62.5244   87.2154   17.6405 O.3     1  UNL1       -0.3502
      4 C          62.1050   85.7885   17.4450 C.3     1  UNL1        0.1637
      5 C          62.5151   85.0493   16.2059 C.3     1  UNL1        0.1257
      6 N          63.3447   85.7368   15.1623 N.am    1  UNL1       -0.2723
      7 C          63.7548   84.9976   13.9233 C.2     1  UNL1        0.2506
      8 O          64.5844   85.6852   12.8796 O.2     1  UNL1       -0.2699
      9 C          63.3354   83.5707   13.7278 C.ar    1  UNL1        0.0730
     10 C          63.4105   82.6035   14.8717 C.ar    1  UNL1        0.0070
     11 C          62.9911   81.1766   14.6763 C.ar    1  UNL1        0.0116
     12 C          62.4965   80.7171   13.3368 C.ar    1  UNL1        0.0592
     13 CL         62.0771   79.2902   13.1413 Cl      1  UNL1       -0.0822
     14 C          62.4213   81.6844   12.1928 C.ar    1  UNL1        0.0324
     15 C          62.8407   83.1112   12.3883 C.ar    1  UNL1        0.1081
     16 N          62.7655   84.0785   11.2443 N.ar    1  UNL1       -0.1476
     17 N          63.5859   84.0256    9.9896 N.ar    1  UNL1       -0.1447
     18 C          63.1841   85.1830    9.1240 C.ar    1  UNL1        0.1446
     19 C          62.1155   85.9511    9.8438 C.ar    1  UNL1        0.1446
     20 N          61.8568   85.2685   11.1542 N.ar    1  UNL1       -0.1447
     21 C          64.5936   87.8513   14.3142 C.3     1  UNL1        0.0484
     22 C          65.4626   90.7147   14.5286 C.3     1  UNL1        0.0307
     23 C          64.4083   90.3231   13.5360 C.ar    1  UNL1       -0.0256
     24 C          63.7885   91.3633   12.6506 C.ar    1  UNL1       -0.0030
     25 C          62.7342   90.9717   11.6580 C.ar    1  UNL1        0.0206
     26 C          62.2998   89.5400   11.5509 C.ar    1  UNL1        0.1026
     27 C          62.9196   88.4999   12.4363 C.ar    1  UNL1        0.0164
     28 C          63.9738   88.8914   13.4288 C.ar    1  UNL1       -0.0228
     29 N          61.2455   89.1485   10.5583 N.ar    1  UNL1       -0.1478
     30 N          61.2281   89.5088    9.1023 N.ar    1  UNL1       -0.1447
     31 C          59.9954   88.9108    8.4915 C.ar    1  UNL1        0.1446
     32 C          59.2510   88.1810    9.5701 C.ar    1  UNL1        0.1446
     33 N          60.0236   88.3279   10.8474 N.ar    1  UNL1       -0.1447
@<TRIPOS>BOND
     1    22    23    1
     2    23    24   ar
     3    24    25   ar
     4    25    26   ar
     5    26    29    1
     6    29    30   ar
     7    30    31   ar
     8    31    32   ar
     9    32    33   ar
    10    26    27   ar
    11    27    28   ar
    12    28    21    1
    13     1    21    1
    14     1     2    1
    15     2     3    1
    16     3     4    1
    17     4     5    1
    18     5     6    1
    19     6     7   am
    20     7     8    2
    21     7     9    1
    22     9    10   ar
    23    10    11   ar
    24    11    12   ar
    25    12    13    1
    26    12    14   ar
    27    14    15   ar
    28    15    16    1
    29    16    17   ar
    30    17    18   ar
    31    18    19   ar
    32    19    20   ar
    33    28    23   ar
    34     6     1    1
    35    15     9   ar
    36    20    16   ar
    37    33    29   ar
@<TRIPOS>MOLECULE
*****
 33 37 0 0 0
SMALL
GASTEIGER

@<TRIPOS>ATOM
      1 C          63.3810   89.4056   15.2718 C.3     1  UNL1        0.1096
      2 C          63.2886   89.7142   16.7369 C.3     1  UNL1        0.1622
      3 O          63.2133   88.5973   17.7353 O.3     1  UNL1       -0.3502
      4 C          63.2305   87.1718   17.2687 C.3     1  UNL1        0.1637
      5 C          63.3230   86.8632   15.8037 C.3     1  UNL1        0.1257
      6 N          63.3982   87.9801   14.8052 N.am    1  UNL1       -0.2723
      7 C          63.4906   87.6715   13.3403 C.2     1  UNL1        0.2506
      8 O          63.5659   88.7885   12.3418 O.2     1  UNL1       -0.2699
      9 C          63.5078   86.2461   12.8737 C.ar    1  UNL1        0.0730
     10 C          64.3636   85.2362   13.5793 C.ar    1  UNL1        0.0070
     11 C          64.3807   83.8107   13.1127 C.ar    1  UNL1        0.0116
     12 C          63.5422   83.3951   11.9406 C.ar    1  UNL1        0.0592
     13 CL         63.5594   81.9696   11.4740 Cl      1  UNL1       -0.0822
     14 C          62.6865   84.4049   11.2349 C.ar    1  UNL1        0.0324
     15 C          62.6693   85.8304   11.7014 C.ar    1  UNL1        0.1081
     16 N          61.8135   86.8403   10.9958 N.ar    1  UNL1       -0.1476
     17 N          60.5503   87.4505   11.5268 N.ar    1  UNL1       -0.1447
     18 C          60.0268   88.4046   10.4945 C.ar    1  UNL1        0.1446
     19 C          60.9666   88.3840    9.3255 C.ar    1  UNL1        0.1446
     20 N          62.0708   87.4172    9.6353 N.ar    1  UNL1       -0.1447
     21 C          63.4562   90.5225   14.2734 C.3     1  UNL1        0.0484
     22 C          64.5501   91.8113   16.7519 C.3     1  UNL1        0.0307
     23 C          65.2341   92.0204   15.4334 C.ar    1  UNL1       -0.0256
     24 C          66.4651   92.8739   15.3542 C.ar    1  UNL1       -0.0030
     25 C          67.1491   93.0830   14.0357 C.ar    1  UNL1        0.0206
     26 C          66.6022   92.4386   12.7965 C.ar    1  UNL1        0.1026
     27 C          65.3712   91.5851   12.8757 C.ar    1  UNL1        0.0164
     28 C          64.6872   91.3760   14.1942 C.ar    1  UNL1       -0.0228
     29 N          67.2863   92.6477   11.4780 N.ar    1  UNL1       -0.1478
     30 N          68.4111   91.8220   10.9276 N.ar    1  UNL1       -0.1447
     31 C          68.7856   92.3831    9.5878 C.ar    1  UNL1        0.1446
     32 C          67.8922   93.5557    9.3103 C.ar    1  UNL1        0.1446
     33 N          66.9656   93.7192   10.4784 N.ar    1  UNL1       -0.1447
@<TRIPOS>BOND
     1    22    23    1
     2    23    24   ar
     3    24    25   ar
     4    25    26   ar
     5    26    29    1
     6    29    30   ar
     7    30    31   ar
     8    31    32   ar
     9    32    33   ar
    10    26    27   ar
    11    27    28   ar
    12    28    21    1
    13     1    21    1
    14     1     2    1
    15     2     3    1
    16     3     4    1
    17     4     5    1
    18     5     6    1
    19     6     7   am
    20     7     8    2
    21     7     9    1
    22     9    10   ar
    23    10    11   ar
    24    11    12   ar
    25    12    13    1
    26    12    14   ar
    27    14    15   ar
    28    15    16    1
    29    16    17   ar
    30    17    18   ar
    31    18    19   ar
    32    19    20   ar
    33    28    23   ar
    34     6     1    1
    35    15     9   ar
    36    20    16   ar
    37    33    29   ar
@<TRIPOS>MOLECULE
*****
 33 37 0 0 0
SMALL
GASTEIGER

@<TRIPOS>ATOM
      1 C          60.8485   87.6439   10.4285 C.3     1  UNL1        0.1096
      2 C          59.8010   87.5510    9.3588 C.3     1  UNL1        0.1622
      3 O          59.5827   88.7011    8.4209 O.3     1  UNL1       -0.3502
      4 C          60.4119   89.9441    8.5526 C.3     1  UNL1        0.1637
      5 C          61.4594   90.0371    9.6223 C.3     1  UNL1        0.1257
      6 N          61.6777   88.8870   10.5602 N.am    1  UNL1       -0.2723
      7 C          62.7252   88.9799   11.6298 C.2     1  UNL1        0.2506
      8 O          62.9435   87.8298   12.5678 O.2     1  UNL1       -0.2699
      9 C          63.5544   90.2230   11.7616 C.ar    1  UNL1        0.0730
     10 C          63.8473   91.0608   10.5524 C.ar    1  UNL1        0.0070
     11 C          64.6765   92.3038   10.6841 C.ar    1  UNL1        0.0116
     12 C          65.2127   92.7090   12.0250 C.ar    1  UNL1        0.0592
     13 CL         66.0419   93.9521   12.1568 Cl      1  UNL1       -0.0822
     14 C          64.9198   91.8712   13.2344 C.ar    1  UNL1        0.0324
     15 C          64.0906   90.6282   13.1026 C.ar    1  UNL1        0.1081
     16 N          63.7976   89.7904   14.3118 N.ar    1  UNL1       -0.1476
     17 N          62.7506   90.0735   15.3480 N.ar    1  UNL1       -0.1447
     18 C          62.8061   88.9805   16.3738 C.ar    1  UNL1        0.1446
     19 C          63.8875   88.0219   15.9715 C.ar    1  UNL1        0.1446
     20 N          64.5003   88.5225   14.6972 N.ar    1  UNL1       -0.1447
     21 C          61.0668   86.4939   11.3664 C.3     1  UNL1        0.0484
     22 C          62.5225   86.5842    8.7447 C.3     1  UNL1        0.0307
     23 C          62.6854   85.4014    9.6526 C.ar    1  UNL1       -0.0256
     24 C          63.5761   84.2637    9.2498 C.ar    1  UNL1       -0.0030
     25 C          63.7390   83.0808   10.1578 C.ar    1  UNL1        0.0206
     26 C          63.0112   83.0357   11.4685 C.ar    1  UNL1        0.1026
     27 C          62.1205   84.1734   11.8714 C.ar    1  UNL1        0.0164
     28 C          61.9576   85.3562   10.9635 C.ar    1  UNL1       -0.0228
     29 N          63.1740   81.8528   12.3765 N.ar    1  UNL1       -0.1478
     30 N          64.0780   81.7763   13.5711 N.ar    1  UNL1       -0.1447
     31 C          63.9242   80.4150   14.1823 C.ar    1  UNL1        0.1446
     32 C          62.9252   79.6504   13.3653 C.ar    1  UNL1        0.1446
     33 N          62.4616   80.5390   12.2493 N.ar    1  UNL1       -0.1447
@<TRIPOS>BOND
     1    22    23    1
     2    23    24   ar
     3    24    25   ar
     4    25    26   ar
     5    26    29    1
     6    29    30   ar
     7    30    31   ar
     8    31    32   ar
     9    32    33   ar
    10    26    27   ar
    11    27    28   ar
    12    28    21    1
    13     1    21    1
    14     1     2    1
    15     2     3    1
    16     3     4    1
    17     4     5    1
    18     5     6    1
    19     6     7   am
    20     7     8    2
    21     7     9    1
    22     9    10   ar
    23    10    11   ar
    24    11    12   ar
    25    12    13    1
    26    12    14   ar
    27    14    15   ar
    28    15    16    1
    29    16    17   ar
    30    17    18   ar
    31    18    19   ar
    32    19    20   ar
    33    28    23   ar
    34     6     1    1
    35    15     9   ar
    36    20    16   ar
    37    33    29   ar
@<TRIPOS>MOLECULE
*****
 33 37 0 0 0
SMALL
GASTEIGER

@<TRIPOS>ATOM
      1 C          60.7188   88.1567   10.7513 C.3     1  UNL1        0.1096
      2 C          59.3605   87.9121   11.3390 C.3     1  UNL1        0.1622
      3 O          58.8189   88.8384   12.3871 O.3     1  UNL1       -0.3502
      4 C          59.6356   90.0094   12.8475 C.3     1  UNL1        0.1637
      5 C          60.9938   90.2540   12.2599 C.3     1  UNL1        0.1257
      6 N          61.5355   89.3276   11.2117 N.am    1  UNL1       -0.2723
      7 C          62.8937   89.5722   10.6241 C.2     1  UNL1        0.2506
      8 O          63.4353   88.6458    9.5759 O.2     1  UNL1       -0.2699
      9 C          63.7103   90.7431   11.0845 C.ar    1  UNL1        0.0730
     10 C          63.9550   91.8974   10.1585 C.ar    1  UNL1        0.0070
     11 C          64.7717   93.0683   10.6189 C.ar    1  UNL1        0.0116
     12 C          65.3436   93.0849   12.0055 C.ar    1  UNL1        0.0592
     13 CL         66.1603   94.2559   12.4659 Cl      1  UNL1       -0.0822
     14 C          65.0989   91.9306   12.9316 C.ar    1  UNL1        0.0324
     15 C          64.2823   90.7597   12.4712 C.ar    1  UNL1        0.1081
     16 N          64.0376   89.6054   13.3973 N.ar    1  UNL1       -0.1476
     17 N          63.9240   88.1638   12.9985 N.ar    1  UNL1       -0.1447
     18 C          63.6797   87.3574   14.2395 C.ar    1  UNL1        0.1446
     19 C          63.6423   88.3007   15.4053 C.ar    1  UNL1        0.1446
     20 N          63.8634   89.6900   14.8847 N.ar    1  UNL1       -0.1447
     21 C          61.2604   87.2303    9.7032 C.3     1  UNL1        0.0484
     22 C          62.5272   85.4959    7.6087 C.3     1  UNL1        0.0307
     23 C          62.6725   85.1465    9.0602 C.ar    1  UNL1       -0.0256
     24 C          63.4512   83.9299    9.4644 C.ar    1  UNL1       -0.0030
     25 C          63.5965   83.5805   10.9160 C.ar    1  UNL1        0.0206
     26 C          62.9631   84.4477   11.9632 C.ar    1  UNL1        0.1026
     27 C          62.1844   85.6643   11.5589 C.ar    1  UNL1        0.0164
     28 C          62.0391   86.0137   10.1074 C.ar    1  UNL1       -0.0228
     29 N          63.1084   84.0983   13.4147 N.ar    1  UNL1       -0.1478
     30 N          62.0800   84.3244   14.4831 N.ar    1  UNL1       -0.1447
     31 C          62.6436   83.8274   15.7814 C.ar    1  UNL1        0.1446
     32 C          64.0201   83.2941   15.5153 C.ar    1  UNL1        0.1446
     33 N          64.3074   83.4616   14.0526 N.ar    1  UNL1       -0.1447
@<TRIPOS>BOND
     1    22    23    1
     2    23    24   ar
     3    24    25   ar
     4    25    26   ar
     5    26    29    1
     6    29    30   ar
     7    30    31   ar
     8    31    32   ar
     9    32    33   ar
    10    26    27   ar
    11    27    28   ar
    12    28    21    1
    13     1    21    1
    14     1     2    1
    15     2     3    1
    16     3     4    1
    17     4     5    1
    18     5     6    1
    19     6     7   am
    20     7     8    2
    21     7     9    1
    22     9    10   ar
    23    10    11   ar
    24    11    12   ar
    25    12    13    1
    26    12    14   ar
    27    14    15   ar
    28    15    16    1
    29    16    17   ar
    30    17    18   ar
    31    18    19   ar
    32    19    20   ar
    33    28    23   ar
    34     6     1    1
    35    15     9   ar
    36    20    16   ar
    37    33    29   ar
