@<TRIPOS>MOLECULE
*****
 33 35 0 0 0
SMALL
GASTEIGER

@<TRIPOS>ATOM
      1 C          65.4600   92.5891   12.7268 C.ar    1  UNL1        0.0740
      2 C          65.9189   92.7337   14.1475 C.ar    1  UNL1        0.1097
      3 N          65.3060   91.8872   15.2235 N.ar    1  UNL1       -0.2283
      4 C          64.2343   90.8960   14.8788 C.ar    1  UNL1        0.1345
      5 C          63.7753   90.7514   13.4581 C.ar    1  UNL1        0.0494
      6 C          64.3882   91.5979   12.3821 C.ar    1  UNL1        0.0567
      7 C          66.6857   94.2821   10.5748 C.1     1  UNL1       -0.0610
      8 C          66.0728   93.4356   11.6508 C.1     1  UNL1       -0.0593
      9 C          67.9402   93.9096    8.9052 C.3     1  UNL1        0.0429
     10 C          67.2986   95.1286    9.4988 C.3     1  UNL1        0.1418
     11 C          66.6569   96.3476   10.0924 C.3     1  UNL1        0.0429
     12 O          67.9114   95.9752    8.4228 O.3     1  UNL1       -0.3753
     13 H          67.5972   95.6738    7.5560 H       1  UNL1        0.2114
     14 N          63.6214   90.0495   15.9548 N.pl3   1  UNL1       -0.2821
     15 H          63.2265   90.4743   16.7503 H       1  UNL1        0.1551
     16 C          63.6102   88.5557   15.8188 C.ar    1  UNL1        0.1527
     17 C          62.9208   87.7137   16.8512 C.ar    1  UNL1        0.1340
     18 N          62.9096   86.2200   16.7152 N.ar    1  UNL1       -0.2290
     19 C          63.5878   85.5681   15.5468 C.ar    1  UNL1        0.1683
     20 C          64.2773   86.4101   14.5145 C.ar    1  UNL1        0.1299
     21 N          64.2885   87.9039   14.6505 N.ar    1  UNL1       -0.2251
     22 C          63.5766   84.0743   15.4109 C.1     1  UNL1        0.1214
     23 N          63.5655   82.5806   15.2749 N.1     1  UNL1       -0.1892
     24 N          63.9292   91.4532   10.9614 N.pl3   1  UNL1       -0.3301
     25 H          64.5794   91.5188   10.2250 H       1  UNL1        0.1469
     26 C          62.4798   91.2087   10.6626 C.3     1  UNL1        0.1185
     27 C          61.9322   89.8126   10.6962 C.3     1  UNL1        0.1503
     28 C          60.7773   89.4813   11.5943 C.3     1  UNL1        0.1003
     29 N          60.2298   88.0853   11.6279 N.3     1  UNL1       -0.2933
     30 C          60.8371   87.0205   10.7634 C.3     1  UNL1        0.1011
     31 C          61.9919   87.3518    9.8653 C.3     1  UNL1        0.1592
     32 O          62.5395   88.7478    9.8317 O.3     1  UNL1       -0.3516
     33 H          59.2452   88.1488   11.3688 H       1  UNL1        0.1234
@<TRIPOS>BOND
     1     9    10    1
     2    10    11    1
     3    10    12    1
     4    10     7    1
     5     7     8    3
     6     8     1    1
     7     1     2   ar
     8     2     3   ar
     9     3     4   ar
    10     4    14    1
    11    14    16    1
    12    16    17   ar
    13    17    18   ar
    14    18    19   ar
    15    19    22    1
    16    22    23    3
    17    19    20   ar
    18    20    21   ar
    19     4     5   ar
    20     5     6   ar
    21     6    24    1
    22    24    26    1
    23    27    26    1
    24    27    28    1
    25    28    29    1
    26    29    30    1
    27    30    31    1
    28    31    32    1
    29     6     1   ar
    30    32    27    1
    31    21    16   ar
    32    12    13    1
    33    14    15    1
    34    24    25    1
    35    29    33    1
@<TRIPOS>MOLECULE
*****
 33 35 0 0 0
SMALL
GASTEIGER

@<TRIPOS>ATOM
      1 C          63.5161   86.1306   13.3383 C.ar    1  UNL1        0.0740
      2 C          64.1759   86.5830   14.6071 C.ar    1  UNL1        0.1097
      3 N          64.3782   88.0465   14.8667 N.ar    1  UNL1       -0.2283
      4 C          63.9209   89.0575   13.8574 C.ar    1  UNL1        0.1345
      5 C          63.2612   88.6050   12.5886 C.ar    1  UNL1        0.0494
      6 C          63.0588   87.1415   12.3290 C.ar    1  UNL1        0.0567
      7 C          63.1114   83.2037   12.8192 C.1     1  UNL1       -0.0610
      8 C          63.3137   84.6671   13.0788 C.1     1  UNL1       -0.0593
      9 C          63.4483   81.9120   11.1706 C.3     1  UNL1        0.0429
     10 C          62.9090   81.7402   12.5597 C.3     1  UNL1        0.1418
     11 C          62.3696   81.5685   13.9488 C.3     1  UNL1        0.0429
     12 O          62.7066   80.2768   12.3002 O.3     1  UNL1       -0.3753
     13 H          63.5593   79.8646   12.0906 H       1  UNL1        0.2114
     14 N          64.1233   90.5209   14.1169 N.pl3   1  UNL1       -0.2821
     15 H          63.7245   90.9393   14.9139 H       1  UNL1        0.1551
     16 C          64.9333   91.3469   13.1622 C.ar    1  UNL1        0.1527
     17 C          66.2894   91.8455   13.5657 C.ar    1  UNL1        0.1340
     18 N          67.0994   92.6715   12.6110 N.ar    1  UNL1       -0.2290
     19 C          66.5535   92.9990   11.2528 C.ar    1  UNL1        0.1683
     20 C          65.1975   92.5005   10.8493 C.ar    1  UNL1        0.1299
     21 N          64.3874   91.6745   11.8040 N.ar    1  UNL1       -0.2251
     22 C          67.3636   93.8251   10.2981 C.1     1  UNL1        0.1214
     23 N          68.1736   94.6511    9.3434 N.1     1  UNL1       -0.1892
     24 N          62.3990   86.6891   11.0601 N.pl3   1  UNL1       -0.3301
     25 H          62.9389   86.2910   10.3394 H       1  UNL1        0.1469
     26 C          60.9168   86.8432   10.8892 C.3     1  UNL1        0.1185
     27 C          60.3683   87.5051    9.6599 C.3     1  UNL1        0.1503
     28 C          60.6508   88.9551    9.3996 C.3     1  UNL1        0.1003
     29 N          60.1023   89.6171    8.1704 N.3     1  UNL1       -0.2933
     30 C          59.2715   88.8291    7.2016 C.3     1  UNL1        0.1011
     31 C          58.9890   87.3791    7.4619 C.3     1  UNL1        0.1592
     32 O          59.5375   86.7171    8.6911 O.3     1  UNL1       -0.3516
     33 H          60.9013   89.9769    7.6484 H       1  UNL1        0.1234
@<TRIPOS>BOND
     1     9    10    1
     2    10    11    1
     3    10    12    1
     4    10     7    1
     5     7     8    3
     6     8     1    1
     7     1     2   ar
     8     2     3   ar
     9     3     4   ar
    10     4    14    1
    11    14    16    1
    12    16    17   ar
    13    17    18   ar
    14    18    19   ar
    15    19    22    1
    16    22    23    3
    17    19    20   ar
    18    20    21   ar
    19     4     5   ar
    20     5     6   ar
    21     6    24    1
    22    24    26    1
    23    27    26    1
    24    27    28    1
    25    28    29    1
    26    29    30    1
    27    30    31    1
    28    31    32    1
    29     6     1   ar
    30    32    27    1
    31    21    16   ar
    32    12    13    1
    33    14    15    1
    34    24    25    1
    35    29    33    1
@<TRIPOS>MOLECULE
*****
 33 35 0 0 0
SMALL
GASTEIGER

@<TRIPOS>ATOM
      1 C          61.0382   86.6304    9.0956 C.ar    1  UNL1        0.0740
      2 C          60.1293   86.0705    8.0419 C.ar    1  UNL1        0.1097
      3 N          59.2155   86.9824    7.2779 N.ar    1  UNL1       -0.2283
      4 C          59.2108   88.4541    7.5677 C.ar    1  UNL1        0.1345
      5 C          60.1197   89.0139    8.6214 C.ar    1  UNL1        0.0494
      6 C          61.0334   88.1021    9.3854 C.ar    1  UNL1        0.0567
      7 C          62.8656   84.8066   10.6236 C.1     1  UNL1       -0.0610
      8 C          61.9519   85.7185    9.8596 C.1     1  UNL1       -0.0593
      9 C          64.1465   83.1947   10.1128 C.3     1  UNL1        0.0429
     10 C          63.7793   83.8948   11.3875 C.3     1  UNL1        0.1418
     11 C          63.4121   84.5949   12.6623 C.3     1  UNL1        0.0429
     12 O          64.6930   82.9829   12.1515 O.3     1  UNL1       -0.3753
     13 H          65.6000   83.0849   11.8232 H       1  UNL1        0.2114
     14 N          58.2971   89.3659    6.8037 N.pl3   1  UNL1       -0.2821
     15 H          57.3251   89.3291    6.9558 H       1  UNL1        0.1551
     16 C          58.8643   90.3338    5.8080 C.ar    1  UNL1        0.1527
     17 C          57.9644   91.3201    5.1242 C.ar    1  UNL1        0.1340
     18 N          58.5315   92.2880    4.1286 N.ar    1  UNL1       -0.2290
     19 C          59.9986   92.2697    3.8166 C.ar    1  UNL1        0.1683
     20 C          60.8985   91.2835    4.5004 C.ar    1  UNL1        0.1299
     21 N          60.3314   90.3155    5.4961 N.ar    1  UNL1       -0.2251
     22 C          60.5658   93.2377    2.8209 C.1     1  UNL1        0.1214
     23 N          61.1329   94.2056    1.8252 N.1     1  UNL1       -0.1892
     24 N          61.9424   88.6620   10.4391 N.pl3   1  UNL1       -0.3301
     25 H          62.6534   88.1008   10.8247 H       1  UNL1        0.1469
     26 C          61.7680   90.0770   10.9054 C.3     1  UNL1        0.1185
     27 C          62.9606   90.8753   11.3417 C.3     1  UNL1        0.1503
     28 C          63.3721   90.8813   12.7842 C.3     1  UNL1        0.1003
     29 N          64.5647   91.6796   13.2205 N.3     1  UNL1       -0.2933
     30 C          65.3458   92.4718   12.2145 C.3     1  UNL1        0.1011
     31 C          64.9343   92.4658   10.7721 C.3     1  UNL1        0.1592
     32 O          63.7417   91.6676   10.3357 O.3     1  UNL1       -0.3516
     33 H          65.2173   91.0234   13.6495 H       1  UNL1        0.1234
@<TRIPOS>BOND
     1     9    10    1
     2    10    11    1
     3    10    12    1
     4    10     7    1
     5     7     8    3
     6     8     1    1
     7     1     2   ar
     8     2     3   ar
     9     3     4   ar
    10     4    14    1
    11    14    16    1
    12    16    17   ar
    13    17    18   ar
    14    18    19   ar
    15    19    22    1
    16    22    23    3
    17    19    20   ar
    18    20    21   ar
    19     4     5   ar
    20     5     6   ar
    21     6    24    1
    22    24    26    1
    23    27    26    1
    24    27    28    1
    25    28    29    1
    26    29    30    1
    27    30    31    1
    28    31    32    1
    29     6     1   ar
    30    32    27    1
    31    21    16   ar
    32    12    13    1
    33    14    15    1
    34    24    25    1
    35    29    33    1
@<TRIPOS>MOLECULE
*****
 33 35 0 0 0
SMALL
GASTEIGER

@<TRIPOS>ATOM
      1 C          63.4819   85.8108   13.2964 C.ar    1  UNL1        0.0740
      2 C          64.0831   86.2159   14.6096 C.ar    1  UNL1        0.1097
      3 N          64.2844   87.6682   14.9262 N.ar    1  UNL1       -0.2283
      4 C          63.8844   88.7155   13.9296 C.ar    1  UNL1        0.1345
      5 C          63.2832   88.3105   12.6165 C.ar    1  UNL1        0.0494
      6 C          63.0819   86.8581   12.2999 C.ar    1  UNL1        0.0567
      7 C          63.0794   82.9062   12.6632 C.1     1  UNL1       -0.0610
      8 C          63.2807   84.3585   12.9798 C.1     1  UNL1       -0.0593
      9 C          62.3855   81.2176   13.7435 C.3     1  UNL1        0.0429
     10 C          62.8782   81.4539   12.3465 C.3     1  UNL1        0.1418
     11 C          63.3708   81.6901   10.9496 C.3     1  UNL1        0.0429
     12 O          62.6769   80.0015   12.0299 O.3     1  UNL1       -0.3753
     13 H          61.7421   79.7713   12.1482 H       1  UNL1        0.2114
     14 N          64.0856   90.1678   14.2463 N.pl3   1  UNL1       -0.2821
     15 H          63.7200   90.5454   15.0787 H       1  UNL1        0.1551
     16 C          64.8440   91.0448   13.2946 C.ar    1  UNL1        0.1527
     17 C          64.2197   91.4562   11.9941 C.ar    1  UNL1        0.1340
     18 N          64.9780   92.3332   11.0424 N.ar    1  UNL1       -0.2290
     19 C          66.3606   92.7989   11.3911 C.ar    1  UNL1        0.1683
     20 C          66.9848   92.3876   12.6915 C.ar    1  UNL1        0.1299
     21 N          66.2265   91.5106   13.6433 N.ar    1  UNL1       -0.2251
     22 C          67.1189   93.6760   10.4393 C.1     1  UNL1        0.1214
     23 N          67.8771   94.5530    9.4876 N.1     1  UNL1       -0.1892
     24 N          62.4807   86.4531   10.9866 N.pl3   1  UNL1       -0.3301
     25 H          63.0425   86.0302   10.2975 H       1  UNL1        0.1469
     26 C          61.0236   86.6925   10.7232 C.3     1  UNL1        0.1185
     27 C          60.4366   88.0561   10.9380 C.3     1  UNL1        0.1503
     28 C          60.6026   89.1175    9.8911 C.3     1  UNL1        0.1003
     29 N          60.0158   90.4810   10.1059 N.3     1  UNL1       -0.2933
     30 C          59.2629   90.7833   11.3675 C.3     1  UNL1        0.1011
     31 C          59.0968   89.7219   12.4144 C.3     1  UNL1        0.1592
     32 O          59.6837   88.3583   12.1997 O.3     1  UNL1       -0.3516
     33 H          59.3734   90.6504    9.3319 H       1  UNL1        0.1234
@<TRIPOS>BOND
     1     9    10    1
     2    10    11    1
     3    10    12    1
     4    10     7    1
     5     7     8    3
     6     8     1    1
     7     1     2   ar
     8     2     3   ar
     9     3     4   ar
    10     4    14    1
    11    14    16    1
    12    16    17   ar
    13    17    18   ar
    14    18    19   ar
    15    19    22    1
    16    22    23    3
    17    19    20   ar
    18    20    21   ar
    19     4     5   ar
    20     5     6   ar
    21     6    24    1
    22    24    26    1
    23    27    26    1
    24    27    28    1
    25    28    29    1
    26    29    30    1
    27    30    31    1
    28    31    32    1
    29     6     1   ar
    30    32    27    1
    31    21    16   ar
    32    12    13    1
    33    14    15    1
    34    24    25    1
    35    29    33    1
@<TRIPOS>MOLECULE
*****
 33 35 0 0 0
SMALL
GASTEIGER

@<TRIPOS>ATOM
      1 C          64.1620   91.0799   12.6918 C.ar    1  UNL1        0.0740
      2 C          63.9507   91.6582   11.3241 C.ar    1  UNL1        0.1097
      3 N          62.7614   91.2430   10.5098 N.ar    1  UNL1       -0.2283
      4 C          61.7834   90.2495   11.0631 C.ar    1  UNL1        0.1345
      5 C          61.9947   89.6711   12.4309 C.ar    1  UNL1        0.0494
      6 C          63.1840   90.0863   13.2452 C.ar    1  UNL1        0.0567
      7 C          66.5406   91.9103   14.3205 C.1     1  UNL1       -0.0610
      8 C          65.3513   91.4951   13.5062 C.1     1  UNL1       -0.0593
      9 C          68.6382   91.9400   14.0051 C.3     1  UNL1        0.0429
     10 C          67.7299   92.3255   15.1349 C.3     1  UNL1        0.1418
     11 C          66.8217   92.7110   16.2647 C.3     1  UNL1        0.0429
     12 O          68.9192   92.7407   15.9492 O.3     1  UNL1       -0.3753
     13 H          69.3954   93.4489   15.4883 H       1  UNL1        0.2114
     14 N          60.5941   89.8343   10.2488 N.pl3   1  UNL1       -0.2821
     15 H          59.7609   90.3569   10.2924 H       1  UNL1        0.1551
     16 C          60.6742   88.6228    9.3680 C.ar    1  UNL1        0.1527
     17 C          59.6823   88.4352    8.2585 C.ar    1  UNL1        0.1340
     18 N          59.7624   87.2237    7.3778 N.ar    1  UNL1       -0.2290
     19 C          60.8344   86.1997    7.6064 C.ar    1  UNL1        0.1683
     20 C          61.8263   86.3873    8.7158 C.ar    1  UNL1        0.1299
     21 N          61.7462   87.5988    9.5967 N.ar    1  UNL1       -0.2251
     22 C          60.9144   84.9882    6.7256 C.1     1  UNL1        0.1214
     23 N          60.9945   83.7767    5.8447 N.1     1  UNL1       -0.1892
     24 N          63.3953   89.5079   14.6131 N.pl3   1  UNL1       -0.3301
     25 H          62.8401   89.8117   15.3672 H       1  UNL1        0.1469
     26 C          64.4525   88.4665   14.8319 C.3     1  UNL1        0.1185
     27 C          64.1616   87.0268   14.5271 C.3     1  UNL1        0.1503
     28 C          64.5212   85.9624   15.5208 C.3     1  UNL1        0.1003
     29 N          64.2304   84.5228   15.2160 N.3     1  UNL1       -0.2933
     30 C          63.5800   84.1476   13.9175 C.3     1  UNL1        0.1011
     31 C          63.2205   85.2121   12.9237 C.3     1  UNL1        0.1592
     32 O          63.5113   86.6517   13.2285 O.3     1  UNL1       -0.3516
     33 H          63.6214   84.1815   15.9598 H       1  UNL1        0.1234
@<TRIPOS>BOND
     1     9    10    1
     2    10    11    1
     3    10    12    1
     4    10     7    1
     5     7     8    3
     6     8     1    1
     7     1     2   ar
     8     2     3   ar
     9     3     4   ar
    10     4    14    1
    11    14    16    1
    12    16    17   ar
    13    17    18   ar
    14    18    19   ar
    15    19    22    1
    16    22    23    3
    17    19    20   ar
    18    20    21   ar
    19     4     5   ar
    20     5     6   ar
    21     6    24    1
    22    24    26    1
    23    27    26    1
    24    27    28    1
    25    28    29    1
    26    29    30    1
    27    30    31    1
    28    31    32    1
    29     6     1   ar
    30    32    27    1
    31    21    16   ar
    32    12    13    1
    33    14    15    1
    34    24    25    1
    35    29    33    1
@<TRIPOS>MOLECULE
*****
 33 35 0 0 0
SMALL
GASTEIGER

@<TRIPOS>ATOM
      1 C          62.2593   88.0787   10.9973 C.ar    1  UNL1        0.0740
      2 C          61.9121   89.5374   10.9580 C.ar    1  UNL1        0.1097
      3 N          62.2097   90.4113   12.1403 N.ar    1  UNL1       -0.2283
      4 C          62.8544   89.8265   13.3618 C.ar    1  UNL1        0.1345
      5 C          63.2016   88.3678   13.4011 C.ar    1  UNL1        0.0494
      6 C          62.9041   87.4939   12.2188 C.ar    1  UNL1        0.0567
      7 C          61.6642   86.3309    8.6327 C.1     1  UNL1       -0.0610
      8 C          61.9618   87.2048    9.8150 C.1     1  UNL1       -0.0593
      9 C          62.7841   84.9664    7.4564 C.3     1  UNL1        0.0429
     10 C          61.3667   85.4571    7.4504 C.3     1  UNL1        0.1418
     11 C          59.9492   85.9477    7.4445 C.3     1  UNL1        0.0429
     12 O          61.0691   84.5832    6.2682 O.3     1  UNL1       -0.3753
     13 H          61.2269   83.6556    6.5039 H       1  UNL1        0.2114
     14 N          63.1520   90.7004   14.5441 N.pl3   1  UNL1       -0.2821
     15 H          62.4522   90.8780   15.2134 H       1  UNL1        0.1551
     16 C          64.5156   91.3037   14.7065 C.ar    1  UNL1        0.1527
     17 C          65.5209   91.1946   13.5985 C.ar    1  UNL1        0.1340
     18 N          66.8845   91.7978   13.7610 N.ar    1  UNL1       -0.2290
     19 C          67.2430   92.5102   15.0314 C.ar    1  UNL1        0.1683
     20 C          66.2379   92.6194   16.1394 C.ar    1  UNL1        0.1299
     21 N          64.8741   92.0161   15.9769 N.ar    1  UNL1       -0.2251
     22 C          68.6068   93.1135   15.1938 C.1     1  UNL1        0.1214
     23 N          69.9705   93.7168   15.3562 N.1     1  UNL1       -0.1892
     24 N          63.2513   86.0351   12.2581 N.pl3   1  UNL1       -0.3301
     25 H          63.5056   85.5672   11.4302 H       1  UNL1        0.1469
     26 C          63.2110   85.2894   13.5590 C.3     1  UNL1        0.1185
     27 C          62.8952   83.8231   13.5735 C.3     1  UNL1        0.1503
     28 C          62.5160   83.1502   14.8594 C.3     1  UNL1        0.1003
     29 N          62.2002   81.6840   14.8739 N.3     1  UNL1       -0.2933
     30 C          62.2635   80.8905   13.6025 C.3     1  UNL1        0.1011
     31 C          62.6426   81.5634   12.3166 C.3     1  UNL1        0.1592
     32 O          62.9585   83.0296   12.3021 O.3     1  UNL1       -0.3516
     33 H          61.2496   81.5910   15.2319 H       1  UNL1        0.1234
@<TRIPOS>BOND
     1     9    10    1
     2    10    11    1
     3    10    12    1
     4    10     7    1
     5     7     8    3
     6     8     1    1
     7     1     2   ar
     8     2     3   ar
     9     3     4   ar
    10     4    14    1
    11    14    16    1
    12    16    17   ar
    13    17    18   ar
    14    18    19   ar
    15    19    22    1
    16    22    23    3
    17    19    20   ar
    18    20    21   ar
    19     4     5   ar
    20     5     6   ar
    21     6    24    1
    22    24    26    1
    23    27    26    1
    24    27    28    1
    25    28    29    1
    26    29    30    1
    27    30    31    1
    28    31    32    1
    29     6     1   ar
    30    32    27    1
    31    21    16   ar
    32    12    13    1
    33    14    15    1
    34    24    25    1
    35    29    33    1
@<TRIPOS>MOLECULE
*****
 33 35 0 0 0
SMALL
GASTEIGER

@<TRIPOS>ATOM
      1 C          64.5167   90.6738   13.1712 C.ar    1  UNL1        0.0740
      2 C          63.9942   89.3850   13.7331 C.ar    1  UNL1        0.1097
      3 N          62.7710   88.7499   13.1411 N.ar    1  UNL1       -0.2283
      4 C          62.0703   89.4037   11.9872 C.ar    1  UNL1        0.1345
      5 C          62.5928   90.6926   11.4254 C.ar    1  UNL1        0.0494
      6 C          63.8160   91.3277   12.0173 C.ar    1  UNL1        0.0567
      7 C          66.9631   91.9440   14.3552 C.1     1  UNL1       -0.0610
      8 C          65.7399   91.3089   13.7632 C.1     1  UNL1       -0.0593
      9 C          67.3611   93.1120   16.0807 C.3     1  UNL1        0.0429
     10 C          68.1864   92.5790   14.9472 C.3     1  UNL1        0.1418
     11 C          69.0116   92.0461   13.8137 C.3     1  UNL1        0.0429
     12 O          69.4096   93.2141   15.5392 O.3     1  UNL1       -0.3753
     13 H          69.5665   92.8502   16.4246 H       1  UNL1        0.2114
     14 N          60.8471   88.7687   11.3952 N.pl3   1  UNL1       -0.2821
     15 H          59.9588   88.9670   11.7706 H       1  UNL1        0.1551
     16 C          60.9772   87.8315   10.2313 C.ar    1  UNL1        0.1527
     17 C          59.8969   87.7714    9.1924 C.ar    1  UNL1        0.1340
     18 N          60.0270   86.8342    8.0284 N.ar    1  UNL1       -0.2290
     19 C          61.2374   85.9572    7.9034 C.ar    1  UNL1        0.1683
     20 C          62.3178   86.0173    8.9423 C.ar    1  UNL1        0.1299
     21 N          62.1877   86.9545   10.1063 N.ar    1  UNL1       -0.2251
     22 C          61.3675   85.0200    6.7394 C.1     1  UNL1        0.1214
     23 N          61.4977   84.0828    5.5754 N.1     1  UNL1       -0.1892
     24 N          64.3385   92.6166   11.4554 N.pl3   1  UNL1       -0.3301
     25 H          63.8038   93.4397   11.5322 H       1  UNL1        0.1469
     26 C          65.6756   92.6515   10.7766 C.3     1  UNL1        0.1185
     27 C          66.2281   93.9526   10.2744 C.3     1  UNL1        0.1503
     28 C          67.3838   93.9574    9.3183 C.3     1  UNL1        0.1003
     29 N          67.9363   95.2584    8.8161 N.3     1  UNL1       -0.2933
     30 C          67.3331   96.5545    9.2701 C.3     1  UNL1        0.1011
     31 C          66.1773   96.5496   10.2262 C.3     1  UNL1        0.1592
     32 O          65.6248   95.2487   10.7284 O.3     1  UNL1       -0.3516
     33 H          67.8594   95.2380    7.7992 H       1  UNL1        0.1234
@<TRIPOS>BOND
     1     9    10    1
     2    10    11    1
     3    10    12    1
     4    10     7    1
     5     7     8    3
     6     8     1    1
     7     1     2   ar
     8     2     3   ar
     9     3     4   ar
    10     4    14    1
    11    14    16    1
    12    16    17   ar
    13    17    18   ar
    14    18    19   ar
    15    19    22    1
    16    22    23    3
    17    19    20   ar
    18    20    21   ar
    19     4     5   ar
    20     5     6   ar
    21     6    24    1
    22    24    26    1
    23    27    26    1
    24    27    28    1
    25    28    29    1
    26    29    30    1
    27    30    31    1
    28    31    32    1
    29     6     1   ar
    30    32    27    1
    31    21    16   ar
    32    12    13    1
    33    14    15    1
    34    24    25    1
    35    29    33    1
@<TRIPOS>MOLECULE
*****
 33 35 0 0 0
SMALL
GASTEIGER

@<TRIPOS>ATOM
      1 C          64.0562   91.8526   10.9739 C.ar    1  UNL1        0.0740
      2 C          63.3413   91.2439    9.8042 C.ar    1  UNL1        0.1097
      3 N          62.4771   90.0336   10.0003 N.ar    1  UNL1       -0.2283
      4 C          62.3279   89.4320   11.3662 C.ar    1  UNL1        0.1345
      5 C          63.0429   90.0406   12.5359 C.ar    1  UNL1        0.0494
      6 C          63.9070   91.2509   12.3398 C.ar    1  UNL1        0.0567
      7 C          65.7844   94.2732   10.5816 C.1     1  UNL1       -0.0610
      8 C          64.9203   93.0629   10.7778 C.1     1  UNL1       -0.0593
      9 C          67.5088   94.7140    9.4274 C.3     1  UNL1        0.0429
     10 C          66.6486   95.4835   10.3855 C.3     1  UNL1        0.1418
     11 C          65.7883   96.2529   11.3435 C.3     1  UNL1        0.0429
     12 O          67.5127   96.6938   10.1893 O.3     1  UNL1       -0.3753
     13 H          67.4965   96.9547    9.2552 H       1  UNL1        0.2114
     14 N          61.4638   88.2217   11.5623 N.pl3   1  UNL1       -0.2821
     15 H          60.5314   88.3257   11.8608 H       1  UNL1        0.1551
     16 C          62.0202   86.8530   11.3037 C.ar    1  UNL1        0.1527
     17 C          62.1814   86.3627    9.8952 C.ar    1  UNL1        0.1340
     18 N          62.7378   84.9940    9.6365 N.ar    1  UNL1       -0.2290
     19 C          63.1331   84.1155   10.7863 C.ar    1  UNL1        0.1683
     20 C          62.9720   84.6057   12.1947 C.ar    1  UNL1        0.1299
     21 N          62.4155   85.9745   12.4534 N.ar    1  UNL1       -0.2251
     22 C          63.6896   82.7467   10.5276 C.1     1  UNL1        0.1214
     23 N          64.2460   81.3780   10.2689 N.1     1  UNL1       -0.1892
     24 N          64.6219   91.8596   13.5096 N.pl3   1  UNL1       -0.3301
     25 H          64.3530   92.7456   13.8442 H       1  UNL1        0.1469
     26 C          65.7466   91.1183   14.1697 C.3     1  UNL1        0.1185
     27 C          66.9809   91.8550   14.5983 C.3     1  UNL1        0.1503
     28 C          68.2462   91.7247   13.8032 C.3     1  UNL1        0.1003
     29 N          69.4805   92.4614   14.2318 N.3     1  UNL1       -0.2933
     30 C          69.4496   93.3283   15.4555 C.3     1  UNL1        0.1011
     31 C          68.1844   93.4586   16.2505 C.3     1  UNL1        0.1592
     32 O          66.9500   92.7220   15.8220 O.3     1  UNL1       -0.3516
     33 H          69.7508   93.0615   13.4525 H       1  UNL1        0.1234
@<TRIPOS>BOND
     1     9    10    1
     2    10    11    1
     3    10    12    1
     4    10     7    1
     5     7     8    3
     6     8     1    1
     7     1     2   ar
     8     2     3   ar
     9     3     4   ar
    10     4    14    1
    11    14    16    1
    12    16    17   ar
    13    17    18   ar
    14    18    19   ar
    15    19    22    1
    16    22    23    3
    17    19    20   ar
    18    20    21   ar
    19     4     5   ar
    20     5     6   ar
    21     6    24    1
    22    24    26    1
    23    27    26    1
    24    27    28    1
    25    28    29    1
    26    29    30    1
    27    30    31    1
    28    31    32    1
    29     6     1   ar
    30    32    27    1
    31    21    16   ar
    32    12    13    1
    33    14    15    1
    34    24    25    1
    35    29    33    1
@<TRIPOS>MOLECULE
*****
 33 35 0 0 0
SMALL
GASTEIGER

@<TRIPOS>ATOM
      1 C          63.7263   85.6732   13.5037 C.ar    1  UNL1        0.0740
      2 C          64.4266   86.0112   14.7864 C.ar    1  UNL1        0.1097
      3 N          64.6795   87.4450   15.1476 N.ar    1  UNL1       -0.2283
      4 C          64.2322   88.5407   14.2261 C.ar    1  UNL1        0.1345
      5 C          63.5319   88.2027   12.9434 C.ar    1  UNL1        0.0494
      6 C          63.2790   86.7689   12.5822 C.ar    1  UNL1        0.0567
      7 C          63.2205   82.8058   12.7814 C.1     1  UNL1       -0.0610
      8 C          63.4734   84.2395   13.1425 C.1     1  UNL1       -0.0593
      9 C          63.3883   81.6535   11.0082 C.3     1  UNL1        0.0429
     10 C          62.9676   81.3720   12.4202 C.3     1  UNL1        0.1418
     11 C          62.5469   81.0905   13.8322 C.3     1  UNL1        0.0429
     12 O          62.7147   79.9383   12.0590 O.3     1  UNL1       -0.3753
     13 H          63.5378   79.5347   11.7420 H       1  UNL1        0.2114
     14 N          64.4851   89.9744   14.5873 N.pl3   1  UNL1       -0.2821
     15 H          64.3256   90.2857   15.5075 H       1  UNL1        0.1551
     16 C          64.9810   90.9338   13.5463 C.ar    1  UNL1        0.1527
     17 C          64.1740   91.1773   12.3055 C.ar    1  UNL1        0.1340
     18 N          64.6699   92.1367   11.2646 N.ar    1  UNL1       -0.2290
     19 C          65.9727   92.8527   11.4644 C.ar    1  UNL1        0.1683
     20 C          66.7797   92.6093   12.7051 C.ar    1  UNL1        0.1299
     21 N          66.2838   91.6498   13.7462 N.ar    1  UNL1       -0.2251
     22 C          66.4686   93.8122   10.4234 C.1     1  UNL1        0.1214
     23 N          66.9643   94.7716    9.3824 N.1     1  UNL1       -0.1892
     24 N          62.5787   86.4310   11.2995 N.pl3   1  UNL1       -0.3301
     25 H          62.3015   85.5036   11.1195 H       1  UNL1        0.1469
     26 C          62.3006   87.5059   10.2910 C.3     1  UNL1        0.1185
     27 C          61.2500   87.2959    9.2411 C.3     1  UNL1        0.1503
     28 C          61.2353   86.0292    8.4377 C.3     1  UNL1        0.1003
     29 N          60.1847   85.8191    7.3879 N.3     1  UNL1       -0.2933
     30 C          59.1489   86.8756    7.1415 C.3     1  UNL1        0.1011
     31 C          59.1636   88.1423    7.9449 C.3     1  UNL1        0.1592
     32 O          60.2142   88.3524    8.9947 O.3     1  UNL1       -0.3516
     33 H          59.6827   84.9677    7.6400 H       1  UNL1        0.1234
@<TRIPOS>BOND
     1     9    10    1
     2    10    11    1
     3    10    12    1
     4    10     7    1
     5     7     8    3
     6     8     1    1
     7     1     2   ar
     8     2     3   ar
     9     3     4   ar
    10     4    14    1
    11    14    16    1
    12    16    17   ar
    13    17    18   ar
    14    18    19   ar
    15    19    22    1
    16    22    23    3
    17    19    20   ar
    18    20    21   ar
    19     4     5   ar
    20     5     6   ar
    21     6    24    1
    22    24    26    1
    23    27    26    1
    24    27    28    1
    25    28    29    1
    26    29    30    1
    27    30    31    1
    28    31    32    1
    29     6     1   ar
    30    32    27    1
    31    21    16   ar
    32    12    13    1
    33    14    15    1
    34    24    25    1
    35    29    33    1
