@<TRIPOS>MOLECULE
*****
 36 39 0 0 0
SMALL
GASTEIGER

@<TRIPOS>ATOM
      1 C          66.0315   92.8597   14.2535 C.3     1  UNL1        0.0821
      2 C          66.5412   94.0052   13.4302 C.3     1  UNL1        0.0473
      3 C          66.1639   94.1148   11.9826 C.3     1  UNL1        0.1183
      4 C          65.2767   93.0789   11.3583 C.3     1  UNL1        0.0511
      5 C          64.7670   91.9334   12.1816 C.3     1  UNL1        0.1256
      6 N          65.1443   91.8238   13.6292 N.3     1  UNL1       -0.1544
      7 S          64.6345   90.6781   14.4524 S.O2    1  UNL1        0.0633
      8 O          65.9087   89.9285   14.1985 O.2     1  UNL1       -0.1528
      9 O          63.3604   91.4277   14.7064 O.2     1  UNL1       -0.1528
     10 C          64.1247   89.5326   15.2757 C.ar    1  UNL1        0.1223
     11 C          64.4813   88.1240   14.9030 C.ar    1  UNL1        0.0208
     12 C          63.9714   86.9785   15.7264 C.ar    1  UNL1        0.0128
     13 C          63.1050   87.2415   16.9222 C.ar    1  UNL1        0.0578
     14 CL         62.5952   86.0959   17.7455 Cl      1  UNL1       -0.0822
     15 C          62.7484   88.6500   17.2949 C.ar    1  UNL1        0.0128
     16 C          63.2583   89.7956   16.4716 C.ar    1  UNL1        0.0208
     17 C          67.8153   92.3970   16.0849 C.3     1  UNL1        0.0015
     18 C          66.4089   92.7500   15.7011 C.3     1  UNL1        0.0178
     19 O          66.6737   95.2605   11.1594 O.3     1  UNL1       -0.3535
     20 C          67.1487   95.0230    9.7565 C.3     1  UNL1        0.1740
     21 C          63.8798   90.8974   11.5572 C.3     1  UNL1        0.2277
     22 O          62.3888   91.0431   11.6322 O.3     1  UNL1       -0.4330
     23 C          61.5017   90.0114   11.0008 C.2     1  UNL1        0.4049
     24 O          60.3248   90.4385   10.1746 O.2     1  UNL1       -0.2262
     25 N          61.7914   88.5526   11.1957 N.am    1  UNL1       -0.2459
     26 C          62.9682   88.1255   12.0219 C.3     1  UNL1        0.0981
     27 C          63.2579   86.6667   12.2167 C.3     1  UNL1        0.0376
     28 C          62.3708   85.6350   11.5853 C.3     1  UNL1        0.0609
     29 C          61.1940   86.0621   10.7591 C.3     1  UNL1        0.0376
     30 C          60.9043   87.5210   10.5643 C.3     1  UNL1        0.0981
     31 N          62.6605   84.1762   11.7801 N.3     1  UNL1       -0.2738
     32 C          63.1871   83.3572   10.6391 C.3     1  UNL1        0.0720
     33 C          63.4768   81.8984   10.8339 C.3     1  UNL1        0.0174
     34 C          63.2400   81.2586   12.1698 C.3     1  UNL1        0.0029
     35 C          62.7134   82.0776   13.3109 C.3     1  UNL1        0.0174
     36 C          62.4237   83.5364   13.1160 C.3     1  UNL1        0.0720
@<TRIPOS>BOND
     1    17    18    1
     2     1    18    1
     3     1     2    1
     4     2     3    1
     5     3    19    1
     6    19    20    1
     7     3     4    1
     8     4     5    1
     9     5    21    1
    10    21    22    1
    11    22    23    1
    12    23    24    2
    13    23    25   am
    14    25    26    1
    15    26    27    1
    16    27    28    1
    17    28    31    1
    18    31    32    1
    19    32    33    1
    20    33    34    1
    21    34    35    1
    22    35    36    1
    23    28    29    1
    24    29    30    1
    25     5     6    1
    26     6     7    1
    27     7     8    2
    28     7     9    2
    29     7    10    1
    30    10    11   ar
    31    11    12   ar
    32    12    13   ar
    33    13    14    1
    34    13    15   ar
    35    15    16   ar
    36     6     1    1
    37    16    10   ar
    38    30    25    1
    39    36    31    1
@<TRIPOS>MOLECULE
*****
 36 39 0 0 0
SMALL
GASTEIGER

@<TRIPOS>ATOM
      1 C          64.9837   91.8342   12.6011 C.3     1  UNL1        0.0821
      2 C          65.9198   92.6192   13.4713 C.3     1  UNL1        0.0473
      3 C          65.9783   92.3484   14.9455 C.3     1  UNL1        0.1183
      4 C          65.1006   91.2926   15.5495 C.3     1  UNL1        0.0511
      5 C          64.1644   90.5076   14.6793 C.3     1  UNL1        0.1256
      6 N          64.1060   90.7784   13.2051 N.3     1  UNL1       -0.1544
      7 S          63.1698   89.9933   12.3349 S.O2    1  UNL1        0.0633
      8 O          63.9087   88.7334   12.6765 O.2     1  UNL1       -0.1528
      9 O          62.4309   91.2531   11.9932 O.2     1  UNL1       -0.1528
     10 C          62.2336   89.2083   11.4647 C.ar    1  UNL1        0.1223
     11 C          61.1051   89.9015   10.7605 C.ar    1  UNL1        0.0208
     12 C          60.1689   89.1165    9.8903 C.ar    1  UNL1        0.0128
     13 C          60.3612   87.6382    9.7243 C.ar    1  UNL1        0.0578
     14 CL         59.4250   86.8532    8.8541 Cl      1  UNL1       -0.0822
     15 C          61.4897   86.9449   10.4284 C.ar    1  UNL1        0.0128
     16 C          62.4259   87.7299   11.2986 C.ar    1  UNL1        0.0208
     17 C          65.9284   93.0221   10.4925 C.3     1  UNL1        0.0015
     18 C          64.9252   92.1050   11.1269 C.3     1  UNL1        0.0178
     19 O          66.9145   93.1335   15.8158 O.3     1  UNL1       -0.3535
     20 C          68.3413   92.6965   15.9678 C.3     1  UNL1        0.1740
     21 C          63.2867   89.4517   15.2833 C.3     1  UNL1        0.2277
     22 O          63.8312   88.5391   16.3419 O.3     1  UNL1       -0.4330
     23 C          63.0920   87.2849   16.7037 C.2     1  UNL1        0.4049
     24 O          62.3596   87.1963   18.0097 O.2     1  UNL1       -0.2262
     25 N          63.0852   86.1195   15.7594 N.am    1  UNL1       -0.2459
     26 C          63.8176   86.2081   14.4534 C.3     1  UNL1        0.0981
     27 C          63.8109   85.0427   13.5091 C.3     1  UNL1        0.0376
     28 C          63.0717   83.7885   13.8709 C.3     1  UNL1        0.0609
     29 C          62.3393   83.6999   15.1770 C.3     1  UNL1        0.0376
     30 C          62.3461   84.8654   16.1212 C.3     1  UNL1        0.0981
     31 N          63.0650   82.6231   12.9267 N.3     1  UNL1       -0.2738
     32 C          63.4550   82.8183   11.4915 C.3     1  UNL1        0.0720
     33 C          63.4483   81.6528   10.5473 C.3     1  UNL1        0.0174
     34 C          63.0514   80.2921   11.0382 C.3     1  UNL1        0.0029
     35 C          62.6614   80.0968   12.4734 C.3     1  UNL1        0.0174
     36 C          62.6681   81.2624   13.4176 C.3     1  UNL1        0.0720
@<TRIPOS>BOND
     1    17    18    1
     2     1    18    1
     3     1     2    1
     4     2     3    1
     5     3    19    1
     6    19    20    1
     7     3     4    1
     8     4     5    1
     9     5    21    1
    10    21    22    1
    11    22    23    1
    12    23    24    2
    13    23    25   am
    14    25    26    1
    15    26    27    1
    16    27    28    1
    17    28    31    1
    18    31    32    1
    19    32    33    1
    20    33    34    1
    21    34    35    1
    22    35    36    1
    23    28    29    1
    24    29    30    1
    25     5     6    1
    26     6     7    1
    27     7     8    2
    28     7     9    2
    29     7    10    1
    30    10    11   ar
    31    11    12   ar
    32    12    13   ar
    33    13    14    1
    34    13    15   ar
    35    15    16   ar
    36     6     1    1
    37    16    10   ar
    38    30    25    1
    39    36    31    1
@<TRIPOS>MOLECULE
*****
 36 39 0 0 0
SMALL
GASTEIGER

@<TRIPOS>ATOM
      1 C          62.5539   84.1619   14.2026 C.3     1  UNL1        0.0821
      2 C          62.7337   84.2579   15.6886 C.3     1  UNL1        0.0473
      3 C          63.2352   85.5313   16.3027 C.3     1  UNL1        0.1183
      4 C          63.5569   86.7086   15.4308 C.3     1  UNL1        0.0511
      5 C          63.3771   86.6126   13.9447 C.3     1  UNL1        0.1256
      6 N          62.8756   85.3393   13.3306 N.3     1  UNL1       -0.1544
      7 S          62.6958   85.2433   11.8445 S.O2    1  UNL1        0.0633
      8 O          63.9306   84.3971   11.7496 O.2     1  UNL1       -0.1528
      9 O          61.4610   86.0896   11.9393 O.2     1  UNL1       -0.1528
     10 C          62.5160   85.1474   10.3584 C.ar    1  UNL1        0.1223
     11 C          63.4047   84.2476    9.5519 C.ar    1  UNL1        0.0208
     12 C          63.2248   84.1517    8.0658 C.ar    1  UNL1        0.0128
     13 C          62.1562   84.9556    7.3862 C.ar    1  UNL1        0.0578
     14 CL         61.9764   84.8597    5.9002 Cl      1  UNL1       -0.0822
     15 C          61.2675   85.8554    8.1927 C.ar    1  UNL1        0.0128
     16 C          61.4473   85.9513    9.6788 C.ar    1  UNL1        0.0208
     17 C          62.4564   81.5659   14.1691 C.3     1  UNL1        0.0015
     18 C          62.0524   82.8886   13.5885 C.3     1  UNL1        0.0178
     19 O          63.4151   85.6272   17.7889 O.3     1  UNL1       -0.3535
     20 C          62.7831   86.7551   18.5495 C.3     1  UNL1        0.1740
     21 C          63.6988   87.7900   13.0727 C.3     1  UNL1        0.2277
     22 O          63.1375   89.1418   13.4005 O.3     1  UNL1       -0.4330
     23 C          64.0386   90.2219   13.9215 C.2     1  UNL1        0.4049
     24 O          64.4090   90.2535   15.3748 O.2     1  UNL1       -0.2262
     25 N          64.5694   91.2703   12.9893 N.am    1  UNL1       -0.2459
     26 C          64.1991   91.2387   11.5361 C.3     1  UNL1        0.0981
     27 C          64.7298   92.2871   10.6039 C.3     1  UNL1        0.0376
     28 C          65.6310   93.3672   11.1249 C.3     1  UNL1        0.0609
     29 C          66.0013   93.3988   12.5781 C.3     1  UNL1        0.0376
     30 C          65.4705   92.3503   13.5103 C.3     1  UNL1        0.0981
     31 N          66.1617   94.4156   10.1927 N.3     1  UNL1       -0.2738
     32 C          67.2503   94.0722    9.2195 C.3     1  UNL1        0.0720
     33 C          67.7811   95.1207    8.2873 C.3     1  UNL1        0.0174
     34 C          67.2233   96.5125    8.3282 C.3     1  UNL1        0.0029
     35 C          66.1347   96.8559    9.3014 C.3     1  UNL1        0.0174
     36 C          65.6039   95.8074   10.2337 C.3     1  UNL1        0.0720
@<TRIPOS>BOND
     1    17    18    1
     2     1    18    1
     3     1     2    1
     4     2     3    1
     5     3    19    1
     6    19    20    1
     7     3     4    1
     8     4     5    1
     9     5    21    1
    10    21    22    1
    11    22    23    1
    12    23    24    2
    13    23    25   am
    14    25    26    1
    15    26    27    1
    16    27    28    1
    17    28    31    1
    18    31    32    1
    19    32    33    1
    20    33    34    1
    21    34    35    1
    22    35    36    1
    23    28    29    1
    24    29    30    1
    25     5     6    1
    26     6     7    1
    27     7     8    2
    28     7     9    2
    29     7    10    1
    30    10    11   ar
    31    11    12   ar
    32    12    13   ar
    33    13    14    1
    34    13    15   ar
    35    15    16   ar
    36     6     1    1
    37    16    10   ar
    38    30    25    1
    39    36    31    1
@<TRIPOS>MOLECULE
*****
 36 39 0 0 0
SMALL
GASTEIGER

@<TRIPOS>ATOM
      1 C          60.4646   86.4989    7.8417 C.3     1  UNL1        0.0821
      2 C          59.6752   87.5257    7.0851 C.3     1  UNL1        0.0473
      3 C          59.5678   88.9263    7.6110 C.3     1  UNL1        0.1183
      4 C          60.2499   89.3002    8.8935 C.3     1  UNL1        0.0511
      5 C          61.0393   88.2735    9.6501 C.3     1  UNL1        0.1256
      6 N          61.1467   86.8728    9.1242 N.3     1  UNL1       -0.1544
      7 S          61.9363   85.8460    9.8808 S.O2    1  UNL1        0.0633
      8 O          63.0118   85.9036    8.8368 O.2     1  UNL1       -0.1528
      9 O          60.8608   85.7885   10.9248 O.2     1  UNL1       -0.1528
     10 C          62.7257   84.8193   10.6375 C.ar    1  UNL1        0.1223
     11 C          63.5945   83.8461    9.8972 C.ar    1  UNL1        0.0208
     12 C          64.3840   82.8193   10.6539 C.ar    1  UNL1        0.0128
     13 C          64.3047   82.7659   12.1508 C.ar    1  UNL1        0.0578
     14 CL         65.0942   81.7391   12.9075 Cl      1  UNL1       -0.0822
     15 C          63.4359   83.7391   12.8911 C.ar    1  UNL1        0.0128
     16 C          62.6465   84.7658   12.1345 C.ar    1  UNL1        0.0208
     17 C          61.5711   84.7737    6.2450 C.3     1  UNL1        0.0015
     18 C          60.5720   85.0982    7.3157 C.3     1  UNL1        0.0178
     19 O          58.7782   89.9531    6.8544 O.3     1  UNL1       -0.3535
     20 C          59.2481   90.4177    5.5078 C.3     1  UNL1        0.1740
     21 C          61.7215   88.6474   10.9327 C.3     1  UNL1        0.2277
     22 O          61.7573   90.0808   11.3729 O.3     1  UNL1       -0.4330
     23 C          62.8580   90.9835   10.8998 C.2     1  UNL1        0.4049
     24 O          62.8636   91.4812    9.4847 O.2     1  UNL1       -0.2262
     25 N          63.9530   91.3884   11.8416 N.am    1  UNL1       -0.2459
     26 C          63.9473   90.8907   13.2566 C.3     1  UNL1        0.0981
     27 C          65.0423   91.2955   14.1984 C.3     1  UNL1        0.0376
     28 C          66.1430   92.1982   13.7252 C.3     1  UNL1        0.0609
     29 C          66.1486   92.6959   12.3102 C.3     1  UNL1        0.0376
     30 C          65.0535   92.2910   11.3684 C.3     1  UNL1        0.0981
     31 N          67.2380   92.6031   14.6670 N.3     1  UNL1       -0.2738
     32 C          67.9509   91.5632   15.4796 C.3     1  UNL1        0.0720
     33 C          69.0459   91.9681   16.4214 C.3     1  UNL1        0.0174
     34 C          69.4280   93.4129   16.5507 C.3     1  UNL1        0.0029
     35 C          68.7150   94.4528   15.7381 C.3     1  UNL1        0.0174
     36 C          67.6199   94.0478   14.7962 C.3     1  UNL1        0.0720
@<TRIPOS>BOND
     1    17    18    1
     2     1    18    1
     3     1     2    1
     4     2     3    1
     5     3    19    1
     6    19    20    1
     7     3     4    1
     8     4     5    1
     9     5    21    1
    10    21    22    1
    11    22    23    1
    12    23    24    2
    13    23    25   am
    14    25    26    1
    15    26    27    1
    16    27    28    1
    17    28    31    1
    18    31    32    1
    19    32    33    1
    20    33    34    1
    21    34    35    1
    22    35    36    1
    23    28    29    1
    24    29    30    1
    25     5     6    1
    26     6     7    1
    27     7     8    2
    28     7     9    2
    29     7    10    1
    30    10    11   ar
    31    11    12   ar
    32    12    13   ar
    33    13    14    1
    34    13    15   ar
    35    15    16   ar
    36     6     1    1
    37    16    10   ar
    38    30    25    1
    39    36    31    1
@<TRIPOS>MOLECULE
*****
 36 39 0 0 0
SMALL
GASTEIGER

@<TRIPOS>ATOM
      1 C          60.6442   86.5020    8.2454 C.3     1  UNL1        0.0821
      2 C          59.9386   87.6368    7.5640 C.3     1  UNL1        0.0473
      3 C          60.0566   89.0291    8.1095 C.3     1  UNL1        0.1183
      4 C          60.8801   89.2867    9.3364 C.3     1  UNL1        0.0511
      5 C          61.5857   88.1519   10.0178 C.3     1  UNL1        0.1256
      6 N          61.4678   86.7596    9.4724 N.3     1  UNL1       -0.1544
      7 S          62.1734   85.6248   10.1539 S.O2    1  UNL1        0.0633
      8 O          61.1904   85.6927   11.2848 O.2     1  UNL1       -0.1528
      9 O          63.1564   85.5570    9.0229 O.2     1  UNL1       -0.1528
     10 C          62.8791   84.4901   10.8353 C.ar    1  UNL1        0.1223
     11 C          62.7436   84.3045   12.3176 C.ar    1  UNL1        0.0208
     12 C          63.4493   83.1697   12.9990 C.ar    1  UNL1        0.0128
     13 C          64.2905   82.2206   12.1982 C.ar    1  UNL1        0.0578
     14 CL         64.9961   81.0858   12.8796 Cl      1  UNL1       -0.0822
     15 C          64.4260   82.4061   10.7159 C.ar    1  UNL1        0.0128
     16 C          63.7203   83.5408   10.0344 C.ar    1  UNL1        0.0208
     17 C          61.2559   84.7315    6.4452 C.3     1  UNL1        0.0015
     18 C          60.5263   85.1097    7.7000 C.3     1  UNL1        0.0178
     19 O          59.3509   90.1639    7.4280 O.3     1  UNL1       -0.3535
     20 C          59.1010   90.1122    5.9498 C.3     1  UNL1        0.1740
     21 C          62.4093   88.4095   11.2448 C.3     1  UNL1        0.2277
     22 O          61.8954   89.3273   12.3141 O.3     1  UNL1       -0.4330
     23 C          62.8550   90.1536   13.1181 C.2     1  UNL1        0.4049
     24 O          62.9860   89.9259   14.5950 O.2     1  UNL1       -0.2262
     25 N          63.6836   91.2076   12.4454 N.am    1  UNL1       -0.2459
     26 C          63.5526   91.4353   10.9686 C.3     1  UNL1        0.0981
     27 C          64.3811   92.4893   10.2959 C.3     1  UNL1        0.0376
     28 C          65.3408   93.3156   11.1000 C.3     1  UNL1        0.0609
     29 C          65.4717   93.0878   12.5768 C.3     1  UNL1        0.0376
     30 C          64.6431   92.0338   13.2495 C.3     1  UNL1        0.0981
     31 N          66.1693   94.3696   10.4273 N.3     1  UNL1       -0.2738
     32 C          67.1131   93.9911    9.3245 C.3     1  UNL1        0.0720
     33 C          67.9417   95.0451    8.6518 C.3     1  UNL1        0.0174
     34 C          67.8264   96.4776    9.0818 C.3     1  UNL1        0.0029
     35 C          66.8826   96.8560   10.1845 C.3     1  UNL1        0.0174
     36 C          66.0540   95.8019   10.8573 C.3     1  UNL1        0.0720
@<TRIPOS>BOND
     1    17    18    1
     2     1    18    1
     3     1     2    1
     4     2     3    1
     5     3    19    1
     6    19    20    1
     7     3     4    1
     8     4     5    1
     9     5    21    1
    10    21    22    1
    11    22    23    1
    12    23    24    2
    13    23    25   am
    14    25    26    1
    15    26    27    1
    16    27    28    1
    17    28    31    1
    18    31    32    1
    19    32    33    1
    20    33    34    1
    21    34    35    1
    22    35    36    1
    23    28    29    1
    24    29    30    1
    25     5     6    1
    26     6     7    1
    27     7     8    2
    28     7     9    2
    29     7    10    1
    30    10    11   ar
    31    11    12   ar
    32    12    13   ar
    33    13    14    1
    34    13    15   ar
    35    15    16   ar
    36     6     1    1
    37    16    10   ar
    38    30    25    1
    39    36    31    1
@<TRIPOS>MOLECULE
*****
 36 39 0 0 0
SMALL
GASTEIGER

@<TRIPOS>ATOM
      1 C          62.8314   85.1135   11.8134 C.3     1  UNL1        0.0821
      2 C          63.6449   84.5371   12.9341 C.3     1  UNL1        0.0473
      3 C          64.2218   85.4401   13.9837 C.3     1  UNL1        0.1183
      4 C          63.9851   86.9196   13.9127 C.3     1  UNL1        0.0511
      5 C          63.1716   87.4960   12.7920 C.3     1  UNL1        0.1256
      6 N          62.5947   86.5929   11.7424 N.3     1  UNL1       -0.1544
      7 S          61.7812   87.1694   10.6217 S.O2    1  UNL1        0.0633
      8 O          60.5613   87.1442   11.4943 O.2     1  UNL1       -0.1528
      9 O          63.0010   87.1946    9.7492 O.2     1  UNL1       -0.1528
     10 C          60.9677   87.7459    9.5011 C.ar    1  UNL1        0.1223
     11 C          60.9260   89.2305    9.2912 C.ar    1  UNL1        0.0208
     12 C          60.1125   89.8070    8.1704 C.ar    1  UNL1        0.0128
     13 C          59.3406   88.8988    7.2597 C.ar    1  UNL1        0.0578
     14 CL         58.5271   89.4752    6.1391 Cl      1  UNL1       -0.0822
     15 C          59.3823   87.4141    7.4697 C.ar    1  UNL1        0.0128
     16 C          60.1958   86.8377    8.5903 C.ar    1  UNL1        0.0208
     17 C          63.1607   83.5193    9.7886 C.3     1  UNL1        0.0015
     18 C          62.2545   84.2104   10.7638 C.3     1  UNL1        0.0178
     19 O          65.0354   84.8636   15.1044 O.3     1  UNL1       -0.3535
     20 C          64.7296   83.4900   15.6235 C.3     1  UNL1        0.1740
     21 C          62.9349   88.9756   12.7210 C.3     1  UNL1        0.2277
     22 O          62.8096   89.7765   13.9830 O.3     1  UNL1       -0.4330
     23 C          63.9251   90.6844   14.4090 C.2     1  UNL1        0.4049
     24 O          64.4166   90.6548   15.8259 O.2     1  UNL1       -0.2262
     25 N          64.5491   91.6218   13.4182 N.am    1  UNL1       -0.2459
     26 C          64.0576   91.6514   12.0013 C.3     1  UNL1        0.0981
     27 C          64.6816   92.5889   11.0104 C.3     1  UNL1        0.0376
     28 C          65.7972   93.4967   11.4365 C.3     1  UNL1        0.0609
     29 C          66.2887   93.4671   12.8533 C.3     1  UNL1        0.0376
     30 C          65.6646   92.5296   13.8442 C.3     1  UNL1        0.0981
     31 N          66.4211   94.4342   10.4456 N.3     1  UNL1       -0.2738
     32 C          67.0583   93.8935    9.1999 C.3     1  UNL1        0.0720
     33 C          67.6823   94.8309    8.2091 C.3     1  UNL1        0.0174
     34 C          67.6691   96.3091    8.4639 C.3     1  UNL1        0.0029
     35 C          67.0320   96.8498    9.7096 C.3     1  UNL1        0.0174
     36 C          66.4080   95.9123   10.7004 C.3     1  UNL1        0.0720
@<TRIPOS>BOND
     1    17    18    1
     2     1    18    1
     3     1     2    1
     4     2     3    1
     5     3    19    1
     6    19    20    1
     7     3     4    1
     8     4     5    1
     9     5    21    1
    10    21    22    1
    11    22    23    1
    12    23    24    2
    13    23    25   am
    14    25    26    1
    15    26    27    1
    16    27    28    1
    17    28    31    1
    18    31    32    1
    19    32    33    1
    20    33    34    1
    21    34    35    1
    22    35    36    1
    23    28    29    1
    24    29    30    1
    25     5     6    1
    26     6     7    1
    27     7     8    2
    28     7     9    2
    29     7    10    1
    30    10    11   ar
    31    11    12   ar
    32    12    13   ar
    33    13    14    1
    34    13    15   ar
    35    15    16   ar
    36     6     1    1
    37    16    10   ar
    38    30    25    1
    39    36    31    1
@<TRIPOS>MOLECULE
*****
 36 39 0 0 0
SMALL
GASTEIGER

@<TRIPOS>ATOM
      1 C          63.1571   84.5292    9.4933 C.3     1  UNL1        0.0821
      2 C          62.8421   84.4666    8.0281 C.3     1  UNL1        0.0473
      3 C          61.6881   85.2490    7.4750 C.3     1  UNL1        0.1183
      4 C          60.8490   86.0941    8.3870 C.3     1  UNL1        0.0511
      5 C          61.1640   86.1567    9.8521 C.3     1  UNL1        0.1256
      6 N          62.3180   85.3743   10.4053 N.3     1  UNL1       -0.1544
      7 S          62.6330   85.4369   11.8706 S.O2    1  UNL1        0.0633
      8 O          63.1712   86.8260   11.6956 O.2     1  UNL1       -0.1528
      9 O          62.0948   84.0478   12.0456 O.2     1  UNL1       -0.1528
     10 C          62.9479   85.4995   13.3358 C.ar    1  UNL1        0.1223
     11 C          63.8700   86.5601   13.8601 C.ar    1  UNL1        0.0208
     12 C          64.1849   86.6227   15.3254 C.ar    1  UNL1        0.0128
     13 C          63.5777   85.6247   16.2663 C.ar    1  UNL1        0.0578
     14 CL         63.8926   85.6873   17.7315 Cl      1  UNL1       -0.0822
     15 C          62.6556   84.5641   15.7420 C.ar    1  UNL1        0.0128
     16 C          62.3407   84.5015   14.2768 C.ar    1  UNL1        0.0208
     17 C          64.1592   82.2803   10.3229 C.3     1  UNL1        0.0015
     18 C          64.3111   83.7468   10.0465 C.3     1  UNL1        0.0178
     19 O          61.3731   85.1864    6.0097 O.3     1  UNL1       -0.3535
     20 C          61.9928   84.1214    5.1542 C.3     1  UNL1        0.1740
     21 C          60.3249   87.0018   10.7643 C.3     1  UNL1        0.2277
     22 O          59.8240   88.3371   10.2996 O.3     1  UNL1       -0.4330
     23 C          60.7800   89.3358    9.7177 C.2     1  UNL1        0.4049
     24 O          60.7011   89.6897    8.2622 O.2     1  UNL1       -0.2262
     25 N          61.8149   89.9806   10.5913 N.am    1  UNL1       -0.2459
     26 C          61.8938   89.6267   12.0468 C.3     1  UNL1        0.0981
     27 C          62.9287   90.2715   12.9204 C.3     1  UNL1        0.0376
     28 C          63.8848   91.2702   12.3385 C.3     1  UNL1        0.0609
     29 C          63.8059   91.6241   10.8830 C.3     1  UNL1        0.0376
     30 C          62.7709   90.9793   10.0094 C.3     1  UNL1        0.0981
     31 N          64.9197   91.9150   13.2121 N.3     1  UNL1       -0.2738
     32 C          65.1738   91.3831   14.5914 C.3     1  UNL1        0.0720
     33 C          66.2087   92.0279   15.4650 C.3     1  UNL1        0.0174
     34 C          66.9896   93.2046   14.9592 C.3     1  UNL1        0.0029
     35 C          66.7355   93.7365   13.5799 C.3     1  UNL1        0.0174
     36 C          65.7005   93.0916   12.7063 C.3     1  UNL1        0.0720
@<TRIPOS>BOND
     1    17    18    1
     2     1    18    1
     3     1     2    1
     4     2     3    1
     5     3    19    1
     6    19    20    1
     7     3     4    1
     8     4     5    1
     9     5    21    1
    10    21    22    1
    11    22    23    1
    12    23    24    2
    13    23    25   am
    14    25    26    1
    15    26    27    1
    16    27    28    1
    17    28    31    1
    18    31    32    1
    19    32    33    1
    20    33    34    1
    21    34    35    1
    22    35    36    1
    23    28    29    1
    24    29    30    1
    25     5     6    1
    26     6     7    1
    27     7     8    2
    28     7     9    2
    29     7    10    1
    30    10    11   ar
    31    11    12   ar
    32    12    13   ar
    33    13    14    1
    34    13    15   ar
    35    15    16   ar
    36     6     1    1
    37    16    10   ar
    38    30    25    1
    39    36    31    1
