@<TRIPOS>MOLECULE
*****
 24 27 0 0 0
SMALL
GASTEIGER

@<TRIPOS>ATOM
      1 O          64.1222   91.8439   16.7283 O.2     1  UNL1       -0.2699
      2 C          64.3515   90.9017   15.5839 C.2     1  UNL1        0.2493
      3 N          63.9098   89.4720   15.6895 N.am    1  UNL1       -0.2698
      4 C          63.2388   88.9847   16.9394 C.3     1  UNL1        0.1021
      5 C          62.7971   87.5551   17.0449 C.3     1  UNL1        0.0874
      6 C          63.0264   86.6129   15.9005 C.ar    1  UNL1        0.1415
      7 O          62.7024   85.1598   15.7164 O.2     1  UNL1       -0.4380
      8 C          63.1732   84.7492   14.3527 C.ar    1  UNL1        0.2471
      9 N          63.7881   85.9484   13.6940 N.ar    1  UNL1       -0.2100
     10 C          63.6974   87.1002   14.6507 C.ar    1  UNL1        0.1124
     11 C          64.1390   88.5298   14.5451 C.3     1  UNL1        0.1425
     12 C          63.0505   83.3798   13.7529 C.ar    1  UNL1        0.1348
     13 C          63.1473   83.2005   12.2668 C.ar    1  UNL1        0.0262
     14 C          63.0247   81.8312   11.6670 C.ar    1  UNL1        0.0329
     15 C          62.8053   80.6411   12.5532 C.ar    1  UNL1        0.1592
     16 F          62.6827   79.2717   11.9534 F       1  UNL1       -0.2025
     17 C          62.7085   80.8204   14.0393 C.ar    1  UNL1        0.1285
     18 N          62.8311   82.1897   14.6392 N.ar    1  UNL1       -0.2368
     19 C          65.0224   91.3890   14.3340 C.ar    1  UNL1        0.0536
     20 C          64.2175   91.6086   13.0875 C.ar    1  UNL1        0.0045
     21 C          64.8886   92.0959   11.8376 C.ar    1  UNL1        0.0001
     22 C          66.3645   92.3637   11.8342 C.ar    1  UNL1        0.0000
     23 C          67.1694   92.1441   13.0808 C.ar    1  UNL1        0.0001
     24 C          66.4984   91.6567   14.3307 C.ar    1  UNL1        0.0045
@<TRIPOS>BOND
     1     1     2    2
     2     2    19    1
     3    19    20   ar
     4    20    21   ar
     5    21    22   ar
     6    22    23   ar
     7    23    24   ar
     8     2     3   am
     9     3     4    1
    10     4     5    1
    11     5     6    1
    12     6     7   ar
    13     7     8   ar
    14     8    12    1
    15    12    13   ar
    16    13    14   ar
    17    14    15   ar
    18    15    16    1
    19    15    17   ar
    20    17    18   ar
    21     8     9   ar
    22     9    10   ar
    23    10    11    1
    24    24    19   ar
    25    11     3    1
    26    10     6   ar
    27    18    12   ar
@<TRIPOS>MOLECULE
*****
 24 27 0 0 0
SMALL
GASTEIGER

@<TRIPOS>ATOM
      1 O          59.9484   86.7675    9.5365 O.2     1  UNL1       -0.2699
      2 C          61.2413   86.8314   10.2945 C.2     1  UNL1        0.2493
      3 N          61.7164   88.1379   10.8581 N.am    1  UNL1       -0.2698
      4 C          60.8988   89.3803   10.6637 C.3     1  UNL1        0.1021
      5 C          61.3739   90.6866   11.2273 C.3     1  UNL1        0.0874
      6 C          62.6667   90.7505   11.9853 C.ar    1  UNL1        0.1415
      7 O          63.3848   91.8869   12.6509 O.2     1  UNL1       -0.4380
      8 C          64.6463   91.3468   13.2566 C.ar    1  UNL1        0.2471
      9 N          64.7078   89.8766   12.9654 N.ar    1  UNL1       -0.2100
     10 C          63.4844   89.5081   12.1796 C.ar    1  UNL1        0.1124
     11 C          63.0092   88.2018   11.6161 C.3     1  UNL1        0.1425
     12 C          65.6671   92.1380   14.0197 C.ar    1  UNL1        0.1348
     13 C          66.3049   91.5546   15.2456 C.ar    1  UNL1        0.0262
     14 C          67.3256   92.3457   16.0086 C.ar    1  UNL1        0.0329
     15 C          67.7086   93.7201   15.5457 C.ar    1  UNL1        0.1592
     16 F          68.7294   94.5112   16.3088 F       1  UNL1       -0.2025
     17 C          67.0708   94.3034   14.3198 C.ar    1  UNL1        0.1285
     18 N          66.0500   93.5124   13.5568 N.ar    1  UNL1       -0.2368
     19 C          62.0589   85.5890   10.4889 C.ar    1  UNL1        0.0536
     20 C          62.0725   84.9010   11.8217 C.ar    1  UNL1        0.0045
     21 C          62.8902   83.6586   12.0161 C.ar    1  UNL1        0.0001
     22 C          63.6943   83.1042   10.8776 C.ar    1  UNL1        0.0000
     23 C          63.6807   83.7922    9.5448 C.ar    1  UNL1        0.0001
     24 C          62.8630   85.0346    9.3504 C.ar    1  UNL1        0.0045
@<TRIPOS>BOND
     1     1     2    2
     2     2    19    1
     3    19    20   ar
     4    20    21   ar
     5    21    22   ar
     6    22    23   ar
     7    23    24   ar
     8     2     3   am
     9     3     4    1
    10     4     5    1
    11     5     6    1
    12     6     7   ar
    13     7     8   ar
    14     8    12    1
    15    12    13   ar
    16    13    14   ar
    17    14    15   ar
    18    15    16    1
    19    15    17   ar
    20    17    18   ar
    21     8     9   ar
    22     9    10   ar
    23    10    11    1
    24    24    19   ar
    25    11     3    1
    26    10     6   ar
    27    18    12   ar
@<TRIPOS>MOLECULE
*****
 24 27 0 0 0
SMALL
GASTEIGER

@<TRIPOS>ATOM
      1 O          58.4291   87.1545    7.2889 O.2     1  UNL1       -0.2699
      2 C          59.2401   88.3944    7.5229 C.2     1  UNL1        0.2493
      3 N          60.1194   88.4981    8.7338 N.am    1  UNL1       -0.2698
      4 C          60.1876   87.3619    9.7107 C.3     1  UNL1        0.1021
      5 C          61.0668   87.4657   10.9215 C.3     1  UNL1        0.0874
      6 C          61.8778   88.7057   11.1554 C.ar    1  UNL1        0.1415
      7 O          62.8270   89.0924   12.2507 O.2     1  UNL1       -0.4380
      8 C          63.3454   90.4676   11.9507 C.ar    1  UNL1        0.2471
      9 N          62.7166   90.9308   10.6700 N.ar    1  UNL1       -0.2100
     10 C          61.8096   89.8419   10.1786 C.ar    1  UNL1        0.1124
     11 C          60.9304   89.7381    8.9677 C.3     1  UNL1        0.1425
     12 C          64.3213   91.2434   12.7849 C.ar    1  UNL1        0.1348
     13 C          64.5436   90.8702   14.2206 C.ar    1  UNL1        0.0262
     14 C          65.5194   91.6460   15.0548 C.ar    1  UNL1        0.0329
     15 C          66.2730   92.7950   14.4532 C.ar    1  UNL1        0.1592
     16 F          67.2489   93.5708   15.2874 F       1  UNL1       -0.2025
     17 C          66.0507   93.1682   13.0175 C.ar    1  UNL1        0.1285
     18 N          65.0749   92.3924   12.1833 N.ar    1  UNL1       -0.2368
     19 C          59.1719   89.5306    6.5460 C.ar    1  UNL1        0.0536
     20 C          57.8491   90.1538    6.2115 C.ar    1  UNL1        0.0045
     21 C          57.7809   91.2900    5.2345 C.ar    1  UNL1        0.0001
     22 C          59.0355   91.8031    4.5922 C.ar    1  UNL1        0.0000
     23 C          60.3583   91.1800    4.9267 C.ar    1  UNL1        0.0001
     24 C          60.4265   90.0438    5.9036 C.ar    1  UNL1        0.0045
@<TRIPOS>BOND
     1     1     2    2
     2     2    19    1
     3    19    20   ar
     4    20    21   ar
     5    21    22   ar
     6    22    23   ar
     7    23    24   ar
     8     2     3   am
     9     3     4    1
    10     4     5    1
    11     5     6    1
    12     6     7   ar
    13     7     8   ar
    14     8    12    1
    15    12    13   ar
    16    13    14   ar
    17    14    15   ar
    18    15    16    1
    19    15    17   ar
    20    17    18   ar
    21     8     9   ar
    22     9    10   ar
    23    10    11    1
    24    24    19   ar
    25    11     3    1
    26    10     6   ar
    27    18    12   ar
@<TRIPOS>MOLECULE
*****
 24 27 0 0 0
SMALL
GASTEIGER

@<TRIPOS>ATOM
      1 O          58.4892   87.0273    8.5985 O.2     1  UNL1       -0.2699
      2 C          59.9504   87.1485    8.9148 C.2     1  UNL1        0.2493
      3 N          60.4229   88.1837    9.8921 N.am    1  UNL1       -0.2698
      4 C          59.4342   89.0976   10.5532 C.3     1  UNL1        0.1021
      5 C          59.9067   90.1327   11.5305 C.3     1  UNL1        0.0874
      6 C          61.3680   90.2539   11.8468 C.ar    1  UNL1        0.1415
      7 O          62.1243   91.1713   12.7615 O.2     1  UNL1       -0.4380
      8 C          63.5804   90.8243   12.6656 C.ar    1  UNL1        0.2471
      9 N          63.7241   89.6924   11.6918 N.ar    1  UNL1       -0.2100
     10 C          62.3567   89.3399   11.1857 C.ar    1  UNL1        0.1124
     11 C          61.8842   88.3048   10.2084 C.3     1  UNL1        0.1425
     12 C          64.6969   91.4919   13.4125 C.ar    1  UNL1        0.1348
     13 C          65.8499   92.0890   12.6615 C.ar    1  UNL1        0.0262
     14 C          66.9664   92.7566   13.4083 C.ar    1  UNL1        0.0329
     15 C          66.9299   92.8270   14.9061 C.ar    1  UNL1        0.1592
     16 F          68.0464   93.4946   15.6530 F       1  UNL1       -0.2025
     17 C          65.7770   92.2298   15.6572 C.ar    1  UNL1        0.1285
     18 N          64.6605   91.5622   14.9104 N.ar    1  UNL1       -0.2368
     19 C          60.9392   86.2345    8.2537 C.ar    1  UNL1        0.0536
     20 C          60.5930   85.5684    6.9551 C.ar    1  UNL1        0.0045
     21 C          61.5818   84.6544    6.2940 C.ar    1  UNL1        0.0001
     22 C          62.9168   84.4066    6.9316 C.ar    1  UNL1        0.0000
     23 C          63.2629   85.0727    8.2302 C.ar    1  UNL1        0.0001
     24 C          62.2742   85.9867    8.8913 C.ar    1  UNL1        0.0045
@<TRIPOS>BOND
     1     1     2    2
     2     2    19    1
     3    19    20   ar
     4    20    21   ar
     5    21    22   ar
     6    22    23   ar
     7    23    24   ar
     8     2     3   am
     9     3     4    1
    10     4     5    1
    11     5     6    1
    12     6     7   ar
    13     7     8   ar
    14     8    12    1
    15    12    13   ar
    16    13    14   ar
    17    14    15   ar
    18    15    16    1
    19    15    17   ar
    20    17    18   ar
    21     8     9   ar
    22     9    10   ar
    23    10    11    1
    24    24    19   ar
    25    11     3    1
    26    10     6   ar
    27    18    12   ar
@<TRIPOS>MOLECULE
*****
 24 27 0 0 0
SMALL
GASTEIGER

@<TRIPOS>ATOM
      1 O          45.5496   76.9135   21.6753 O.2     1  UNL1       -0.2699
      2 C          45.7122   76.7104   20.1980 C.2     1  UNL1        0.2493
      3 N          45.4415   75.3654   19.5916 N.am    1  UNL1       -0.2698
      4 C          45.0082   74.2235   20.4624 C.3     1  UNL1        0.1021
      5 C          44.7375   72.8786   19.8559 C.3     1  UNL1        0.0874
      6 C          44.9001   72.6755   18.3787 C.ar    1  UNL1        0.1415
      7 O          44.7068   71.4726   17.5036 O.2     1  UNL1       -0.4380
      8 C          45.0207   71.8711   16.0920 C.ar    1  UNL1        0.2471
      9 N          45.4079   73.3202   16.0946 N.ar    1  UNL1       -0.2100
     10 C          45.3334   73.8174   17.5079 C.ar    1  UNL1        0.1124
     11 C          45.6041   75.1623   18.1143 C.3     1  UNL1        0.1425
     12 C          44.9583   70.9773   14.8889 C.ar    1  UNL1        0.1348
     13 C          46.1581   70.1693   14.4918 C.ar    1  UNL1        0.0262
     14 C          46.0958   69.2756   13.2888 C.ar    1  UNL1        0.0329
     15 C          44.8336   69.1898   12.4829 C.ar    1  UNL1        0.1592
     16 F          44.7712   68.2961   11.2798 F       1  UNL1       -0.2025
     17 C          43.6338   69.9978   12.8799 C.ar    1  UNL1        0.1285
     18 N          43.6962   70.8915   14.0830 N.ar    1  UNL1       -0.2368
     19 C          46.1455   77.8523   19.3272 C.ar    1  UNL1        0.0536
     20 C          47.6047   78.1589   19.1634 C.ar    1  UNL1        0.0045
     21 C          48.0379   79.3008   18.2926 C.ar    1  UNL1        0.0001
     22 C          47.0121   80.1361   17.5856 C.ar    1  UNL1        0.0000
     23 C          45.5529   79.8295   17.7494 C.ar    1  UNL1        0.0001
     24 C          45.1196   78.6876   18.6202 C.ar    1  UNL1        0.0045
@<TRIPOS>BOND
     1     1     2    2
     2     2    19    1
     3    19    20   ar
     4    20    21   ar
     5    21    22   ar
     6    22    23   ar
     7    23    24   ar
     8     2     3   am
     9     3     4    1
    10     4     5    1
    11     5     6    1
    12     6     7   ar
    13     7     8   ar
    14     8    12    1
    15    12    13   ar
    16    13    14   ar
    17    14    15   ar
    18    15    16    1
    19    15    17   ar
    20    17    18   ar
    21     8     9   ar
    22     9    10   ar
    23    10    11    1
    24    24    19   ar
    25    11     3    1
    26    10     6   ar
    27    18    12   ar
