@<TRIPOS>MOLECULE
*****
 24 27 0 0 0
SMALL
GASTEIGER

@<TRIPOS>ATOM
      1 O          66.2460   93.1191   13.9683 O.2     1  UNL1       -0.5093
      2 C          65.3864   91.9489   13.5915 C.2     1  UNL1        0.1202
      3 C          65.2101   90.8085   14.5497 C.2     1  UNL1        0.0365
      4 C          64.3505   89.6383   14.1729 C.2     1  UNL1        0.0529
      5 C          63.6673   89.6088   12.8379 C.2     1  UNL1        0.2323
      6 N          62.7657   88.5975   12.1941 N.2     1  UNL1       -0.0308
      7 C          62.3848   89.1131   10.8379 C.2     1  UNL1        0.3752
      8 N          63.0510   90.4429   10.6436 N.2     1  UNL1       -0.0346
      9 C          63.8436   90.7493   11.8797 C.2     1  UNL1        0.2215
     10 C          64.7032   91.9194   12.2565 C.3     1  UNL1        0.1420
     11 H          66.6728   93.1377   14.8023 H       1  UNL1        0.2917
     12 C          61.4941   88.4205    9.8496 C.ar    1  UNL1        0.0884
     13 C          61.5782   86.9327    9.6781 C.ar    1  UNL1        0.0077
     14 C          60.6874   86.2401    8.6897 C.ar    1  UNL1        0.0003
     15 C          59.7125   87.0352    7.8728 C.ar    1  UNL1        0.0000
     16 C          59.6284   88.5230    8.0443 C.ar    1  UNL1        0.0003
     17 C          60.5192   89.2156    9.0327 C.ar    1  UNL1        0.0077
     18 C          64.8796   93.0599   11.2983 C.3     1  UNL1        0.0882
     19 N          66.1680   93.2152   10.5462 N.3     1  UNL1       -0.2719
     20 C          66.4541   94.4863    9.8029 C.3     1  UNL1        0.0721
     21 C          67.7426   94.6415    9.0508 C.3     1  UNL1        0.0174
     22 C          68.7450   93.5257    9.0420 C.3     1  UNL1        0.0029
     23 C          68.4589   92.2546    9.7853 C.3     1  UNL1        0.0174
     24 C          67.1704   92.0993   10.5374 C.3     1  UNL1        0.0721
@<TRIPOS>BOND
     1     1     2    1
     2     2     3    2
     3     3     4    1
     4     4     5    2
     5     5     6    1
     6     6     7    2
     7     7    12    1
     8    12    13   ar
     9    13    14   ar
    10    14    15   ar
    11    15    16   ar
    12    16    17   ar
    13     7     8    1
    14     8     9    2
    15     9    10    1
    16    10    18    1
    17    18    19    1
    18    19    20    1
    19    20    21    1
    20    21    22    1
    21    22    23    1
    22    23    24    1
    23    10     2    1
    24    24    19    1
    25     9     5    1
    26    17    12   ar
    27     1    11    1
@<TRIPOS>MOLECULE
*****
 24 27 0 0 0
SMALL
GASTEIGER

@<TRIPOS>ATOM
      1 O          65.3326   92.0690   15.6973 O.2     1  UNL1       -0.5093
      2 C          64.8598   91.7058   14.3208 C.2     1  UNL1        0.1202
      3 C          65.4478   92.3882   13.1215 C.2     1  UNL1        0.0365
      4 C          64.9750   92.0249   11.7450 C.2     1  UNL1        0.0529
      5 C          63.9142   90.9792   11.5680 C.2     1  UNL1        0.2323
      6 N          63.2539   90.4165   10.3444 N.2     1  UNL1       -0.0308
      7 C          62.2578   89.3863   10.7876 C.2     1  UNL1        0.3752
      8 N          62.3025   89.3123   12.2851 N.2     1  UNL1       -0.0346
      9 C          63.3263   90.2968   12.7675 C.2     1  UNL1        0.2215
     10 C          63.7991   90.6601   14.1439 C.3     1  UNL1        0.1420
     11 H          65.9952   92.7222   15.8079 H       1  UNL1        0.2917
     12 C          61.3724   88.5728    9.8908 C.ar    1  UNL1        0.0884
     13 C          60.3926   89.2563    8.9837 C.ar    1  UNL1        0.0077
     14 C          59.5072   88.4428    8.0868 C.ar    1  UNL1        0.0003
     15 C          59.6015   86.9458    8.0971 C.ar    1  UNL1        0.0000
     16 C          60.5813   86.2623    9.0043 C.ar    1  UNL1        0.0003
     17 C          61.4667   87.0758    9.9011 C.ar    1  UNL1        0.0077
     18 C          63.2111   89.9777   15.3433 C.3     1  UNL1        0.0882
     19 N          63.4867   88.5239   15.5892 N.3     1  UNL1       -0.2719
     20 C          62.8917   87.8394   16.7839 C.3     1  UNL1        0.0721
     21 C          63.1673   86.3855   17.0298 C.3     1  UNL1        0.0174
     22 C          64.0379   85.6163   16.0811 C.3     1  UNL1        0.0029
     23 C          64.6330   86.3009   14.8863 C.3     1  UNL1        0.0174
     24 C          64.3574   87.7547   14.6404 C.3     1  UNL1        0.0721
@<TRIPOS>BOND
     1     1     2    1
     2     2     3    2
     3     3     4    1
     4     4     5    2
     5     5     6    1
     6     6     7    2
     7     7    12    1
     8    12    13   ar
     9    13    14   ar
    10    14    15   ar
    11    15    16   ar
    12    16    17   ar
    13     7     8    1
    14     8     9    2
    15     9    10    1
    16    10    18    1
    17    18    19    1
    18    19    20    1
    19    20    21    1
    20    21    22    1
    21    22    23    1
    22    23    24    1
    23    10     2    1
    24    24    19    1
    25     9     5    1
    26    17    12   ar
    27     1    11    1
@<TRIPOS>MOLECULE
*****
 24 27 0 0 0
SMALL
GASTEIGER

@<TRIPOS>ATOM
      1 O          59.9071   90.7410    9.6754 O.2     1  UNL1       -0.5093
      2 C          60.3005   89.2937    9.7050 C.2     1  UNL1        0.1202
      3 C          60.0056   88.4121    8.5279 C.2     1  UNL1        0.0365
      4 C          60.3990   86.9649    8.5576 C.2     1  UNL1        0.0529
      5 C          61.0872   86.3994    9.7645 C.2     1  UNL1        0.2323
      6 N          61.5899   85.0217   10.0797 N.2     1  UNL1       -0.0308
      7 C          62.1954   85.0520   11.4517 C.2     1  UNL1        0.3752
      8 N          62.0670   86.4483   11.9844 N.2     1  UNL1       -0.0346
      9 C          61.3820   87.2810   10.9416 C.2     1  UNL1        0.2215
     10 C          60.9886   88.7282   10.9119 C.3     1  UNL1        0.1420
     11 H          59.4772   91.0943    8.9215 H       1  UNL1        0.2917
     12 C          62.8199   83.8899   12.1656 C.ar    1  UNL1        0.0884
     13 C          63.6049   84.1165   13.4235 C.ar    1  UNL1        0.0077
     14 C          64.2293   82.9544   14.1375 C.ar    1  UNL1        0.0003
     15 C          64.0687   81.5658   13.5935 C.ar    1  UNL1        0.0000
     16 C          63.2837   81.3392   12.3356 C.ar    1  UNL1        0.0003
     17 C          62.6592   82.5013   11.6217 C.ar    1  UNL1        0.0077
     18 C          61.2835   89.6099   12.0891 C.3     1  UNL1        0.0882
     19 N          62.5738   90.3724   12.1505 N.3     1  UNL1       -0.2719
     20 C          63.3452   90.4388   13.4351 C.3     1  UNL1        0.0721
     21 C          64.6356   91.2014   13.4965 C.3     1  UNL1        0.0174
     22 C          65.1543   91.8974   12.2733 C.3     1  UNL1        0.0029
     23 C          64.3827   91.8310   10.9886 C.3     1  UNL1        0.0174
     24 C          63.0925   91.0685   10.9272 C.3     1  UNL1        0.0721
@<TRIPOS>BOND
     1     1     2    1
     2     2     3    2
     3     3     4    1
     4     4     5    2
     5     5     6    1
     6     6     7    2
     7     7    12    1
     8    12    13   ar
     9    13    14   ar
    10    14    15   ar
    11    15    16   ar
    12    16    17   ar
    13     7     8    1
    14     8     9    2
    15     9    10    1
    16    10    18    1
    17    18    19    1
    18    19    20    1
    19    20    21    1
    20    21    22    1
    21    22    23    1
    22    23    24    1
    23    10     2    1
    24    24    19    1
    25     9     5    1
    26    17    12   ar
    27     1    11    1
@<TRIPOS>MOLECULE
*****
 24 27 0 0 0
SMALL
GASTEIGER

@<TRIPOS>ATOM
      1 O          63.3919   91.6116   13.0128 O.2     1  UNL1       -0.5093
      2 C          63.0549   90.3081   12.3515 C.2     1  UNL1        0.1202
      3 C          62.2958   90.2975   11.0579 C.2     1  UNL1        0.0365
      4 C          61.9588   88.9940   10.3966 C.2     1  UNL1        0.0529
      5 C          62.3809   87.7010   11.0290 C.2     1  UNL1        0.2323
      6 N          62.1930   86.2720   10.6134 N.2     1  UNL1       -0.0308
      7 C          62.8360   85.3994   11.6503 C.2     1  UNL1        0.3752
      8 N          63.4213   86.2891   12.7067 N.2     1  UNL1       -0.0346
      9 C          63.1400   87.7116   12.3227 C.2     1  UNL1        0.2215
     10 C          63.4770   89.0151   12.9840 C.3     1  UNL1        0.1420
     11 H          63.1283   92.4193   12.6178 H       1  UNL1        0.2917
     12 C          62.8852   83.9003   11.6337 C.ar    1  UNL1        0.0884
     13 C          63.4673   83.1820   10.4525 C.ar    1  UNL1        0.0077
     14 C          63.5164   81.6829   10.4360 C.ar    1  UNL1        0.0003
     15 C          62.9834   80.9021   11.6006 C.ar    1  UNL1        0.0000
     16 C          62.4013   81.6204   12.7817 C.ar    1  UNL1        0.0003
     17 C          62.3522   83.1195   12.7983 C.ar    1  UNL1        0.0077
     18 C          64.2361   89.0257   14.2777 C.3     1  UNL1        0.0882
     19 N          63.8251   88.1143   15.3959 N.3     1  UNL1       -0.2719
     20 C          63.0660   88.6610   16.5684 C.3     1  UNL1        0.0721
     21 C          62.6550   87.7495   17.6867 C.3     1  UNL1        0.0174
     22 C          63.0031   86.2915   17.6324 C.3     1  UNL1        0.0029
     23 C          63.7623   85.7449   16.4597 C.3     1  UNL1        0.0174
     24 C          64.1733   86.6562   15.3415 C.3     1  UNL1        0.0721
@<TRIPOS>BOND
     1     1     2    1
     2     2     3    2
     3     3     4    1
     4     4     5    2
     5     5     6    1
     6     6     7    2
     7     7    12    1
     8    12    13   ar
     9    13    14   ar
    10    14    15   ar
    11    15    16   ar
    12    16    17   ar
    13     7     8    1
    14     8     9    2
    15     9    10    1
    16    10    18    1
    17    18    19    1
    18    19    20    1
    19    20    21    1
    20    21    22    1
    21    22    23    1
    22    23    24    1
    23    10     2    1
    24    24    19    1
    25     9     5    1
    26    17    12   ar
    27     1    11    1
@<TRIPOS>MOLECULE
*****
 24 27 0 0 0
SMALL
GASTEIGER

@<TRIPOS>ATOM
      1 O          64.7571   85.2243   16.0270 O.2     1  UNL1       -0.5093
      2 C          64.2337   86.0917   14.9207 C.2     1  UNL1        0.1202
      3 C          64.6249   87.5381   14.8529 C.2     1  UNL1        0.0365
      4 C          64.1016   88.4056   13.7466 C.2     1  UNL1        0.0529
      5 C          63.1870   87.8265   12.7083 C.2     1  UNL1        0.2323
      6 N          62.5184   88.4318   11.5097 N.2     1  UNL1       -0.0308
      7 C          61.7139   87.3594   10.8369 C.2     1  UNL1        0.3752
      8 N          61.8854   86.0913   11.6195 N.2     1  UNL1       -0.0346
      9 C          62.7958   86.3800   12.7762 C.2     1  UNL1        0.2215
     10 C          63.3192   85.5126   13.8824 C.3     1  UNL1        0.1420
     11 H          65.3284   85.5860   16.6756 H       1  UNL1        0.2917
     12 C          60.8837   87.5258    9.5987 C.ar    1  UNL1        0.0884
     13 C          60.5429   88.9000    9.1033 C.ar    1  UNL1        0.0077
     14 C          59.7127   89.0663    7.8651 C.ar    1  UNL1        0.0003
     15 C          59.2233   87.8585    7.1223 C.ar    1  UNL1        0.0000
     16 C          59.5642   86.4843    7.6177 C.ar    1  UNL1        0.0003
     17 C          60.3944   86.3180    8.8559 C.ar    1  UNL1        0.0077
     18 C          62.9280   84.0661   13.9503 C.3     1  UNL1        0.0882
     19 N          63.1691   83.1679   12.7734 N.3     1  UNL1       -0.2719
     20 C          64.1623   83.5617   11.7205 C.3     1  UNL1        0.0721
     21 C          64.4034   82.6634   10.5436 C.3     1  UNL1        0.0174
     22 C          63.6515   81.3715   10.4197 C.3     1  UNL1        0.0029
     23 C          62.6583   80.9777   11.4726 C.3     1  UNL1        0.0174
     24 C          62.4171   81.8759   12.6495 C.3     1  UNL1        0.0721
@<TRIPOS>BOND
     1     1     2    1
     2     2     3    2
     3     3     4    1
     4     4     5    2
     5     5     6    1
     6     6     7    2
     7     7    12    1
     8    12    13   ar
     9    13    14   ar
    10    14    15   ar
    11    15    16   ar
    12    16    17   ar
    13     7     8    1
    14     8     9    2
    15     9    10    1
    16    10    18    1
    17    18    19    1
    18    19    20    1
    19    20    21    1
    20    21    22    1
    21    22    23    1
    22    23    24    1
    23    10     2    1
    24    24    19    1
    25     9     5    1
    26    17    12   ar
    27     1    11    1
@<TRIPOS>MOLECULE
*****
 24 27 0 0 0
SMALL
GASTEIGER

@<TRIPOS>ATOM
      1 O          62.8438   88.5060   16.0683 O.2     1  UNL1       -0.5093
      2 C          63.5875   89.7073   15.5644 C.2     1  UNL1        0.1202
      3 C          63.9690   90.8053   16.5123 C.2     1  UNL1        0.0365
      4 C          64.7127   92.0066   16.0083 C.2     1  UNL1        0.0529
      5 C          65.0748   92.1097   14.5563 C.2     1  UNL1        0.2323
      6 N          65.7999   93.1653   13.7753 N.2     1  UNL1       -0.0308
      7 C          65.8665   92.7195   12.3446 C.2     1  UNL1        0.3752
      8 N          65.1826   91.3885   12.2414 N.2     1  UNL1       -0.0346
      9 C          64.6933   91.0116   13.6084 C.2     1  UNL1        0.2215
     10 C          63.9497   89.8104   14.1124 C.3     1  UNL1        0.1420
     11 H          62.6176   88.4415   16.9753 H       1  UNL1        0.2917
     12 C          66.5049   93.4726   11.2153 C.ar    1  UNL1        0.0884
     13 C          66.3011   94.9535   11.0913 C.ar    1  UNL1        0.0077
     14 C          66.9396   95.7064    9.9620 C.ar    1  UNL1        0.0003
     15 C          67.7818   94.9786    8.9566 C.ar    1  UNL1        0.0000
     16 C          67.9857   93.4977    9.0806 C.ar    1  UNL1        0.0003
     17 C          67.3472   92.7447   10.2099 C.ar    1  UNL1        0.0077
     18 C          63.5682   88.7122   13.1645 C.3     1  UNL1        0.0882
     19 N          62.5320   88.9593   12.1084 N.3     1  UNL1       -0.2719
     20 C          61.5267   90.0583   12.2866 C.3     1  UNL1        0.0721
     21 C          60.4905   90.3053   11.2305 C.3     1  UNL1        0.0174
     22 C          60.4596   89.4536    9.9963 C.3     1  UNL1        0.0029
     23 C          61.4650   88.3546    9.8181 C.3     1  UNL1        0.0174
     24 C          62.5012   88.1075   10.8741 C.3     1  UNL1        0.0721
@<TRIPOS>BOND
     1     1     2    1
     2     2     3    2
     3     3     4    1
     4     4     5    2
     5     5     6    1
     6     6     7    2
     7     7    12    1
     8    12    13   ar
     9    13    14   ar
    10    14    15   ar
    11    15    16   ar
    12    16    17   ar
    13     7     8    1
    14     8     9    2
    15     9    10    1
    16    10    18    1
    17    18    19    1
    18    19    20    1
    19    20    21    1
    20    21    22    1
    21    22    23    1
    22    23    24    1
    23    10     2    1
    24    24    19    1
    25     9     5    1
    26    17    12   ar
    27     1    11    1
@<TRIPOS>MOLECULE
*****
 24 27 0 0 0
SMALL
GASTEIGER

@<TRIPOS>ATOM
      1 O          62.6856   91.0526   11.6503 O.2     1  UNL1       -0.5093
      2 C          63.0044   89.7187   12.2580 C.2     1  UNL1        0.1202
      3 C          63.9445   89.6309   13.4234 C.2     1  UNL1        0.0365
      4 C          64.2634   88.2971   14.0311 C.2     1  UNL1        0.0529
      5 C          63.6420   87.0510   13.4732 C.2     1  UNL1        0.2323
      6 N          63.7663   85.6073   13.8608 N.2     1  UNL1       -0.0308
      7 C          62.9030   84.8028   12.9348 C.2     1  UNL1        0.3752
      8 N          62.2450   85.7494   11.9750 N.2     1  UNL1       -0.0346
      9 C          62.7017   87.1388   12.3078 C.2     1  UNL1        0.2215
     10 C          62.3830   88.4727   11.7002 C.3     1  UNL1        0.1420
     11 H          63.0737   91.8310   11.9987 H       1  UNL1        0.2917
     12 C          62.7283   83.3133   12.9635 C.ar    1  UNL1        0.0884
     13 C          62.2003   82.6438   14.1976 C.ar    1  UNL1        0.0077
     14 C          62.0256   81.1542   14.2262 C.ar    1  UNL1        0.0003
     15 C          62.3788   80.3343   13.0209 C.ar    1  UNL1        0.0000
     16 C          62.9067   81.0038   11.7868 C.ar    1  UNL1        0.0003
     17 C          63.0815   82.4934   11.7581 C.ar    1  UNL1        0.0077
     18 C          61.4428   88.5605   10.5347 C.3     1  UNL1        0.0882
     19 N          61.4267   87.4741    9.5005 N.3     1  UNL1       -0.2719
     20 C          60.1439   87.1132    8.8119 C.3     1  UNL1        0.0721
     21 C          60.1279   86.0267    7.7777 C.3     1  UNL1        0.0174
     22 C          61.3944   85.3013    7.4322 C.3     1  UNL1        0.0029
     23 C          62.6773   85.6623    8.1209 C.3     1  UNL1        0.0174
     24 C          62.6934   86.7487    9.1551 C.3     1  UNL1        0.0721
@<TRIPOS>BOND
     1     1     2    1
     2     2     3    2
     3     3     4    1
     4     4     5    2
     5     5     6    1
     6     6     7    2
     7     7    12    1
     8    12    13   ar
     9    13    14   ar
    10    14    15   ar
    11    15    16   ar
    12    16    17   ar
    13     7     8    1
    14     8     9    2
    15     9    10    1
    16    10    18    1
    17    18    19    1
    18    19    20    1
    19    20    21    1
    20    21    22    1
    21    22    23    1
    22    23    24    1
    23    10     2    1
    24    24    19    1
    25     9     5    1
    26    17    12   ar
    27     1    11    1
@<TRIPOS>MOLECULE
*****
 24 27 0 0 0
SMALL
GASTEIGER

@<TRIPOS>ATOM
      1 O          68.2426   93.3797   14.5655 O.2     1  UNL1       -0.5093
      2 C          66.9326   92.6526   14.4902 C.2     1  UNL1        0.1202
      3 C          66.1476   92.3900   15.7410 C.2     1  UNL1        0.0365
      4 C          64.8376   91.6630   15.6657 C.2     1  UNL1        0.0529
      5 C          64.3129   91.1985   14.3394 C.2     1  UNL1        0.2323
      6 N          63.0630   90.4631   13.9564 N.2     1  UNL1       -0.0308
      7 C          63.0756   90.2712   12.4688 C.2     1  UNL1        0.3752
      8 N          64.3333   90.8880   11.9324 N.2     1  UNL1       -0.0346
      9 C          65.0981   91.4611   13.0886 C.2     1  UNL1        0.2215
     10 C          66.4079   92.1881   13.1640 C.3     1  UNL1        0.1420
     11 H          68.5704   93.6698   15.3940 H       1  UNL1        0.2917
     12 C          62.0164   89.5833   11.6595 C.ar    1  UNL1        0.0884
     13 C          60.5724   89.7222   12.0412 C.ar    1  UNL1        0.0077
     14 C          59.5133   89.0342   11.2318 C.ar    1  UNL1        0.0003
     15 C          59.8981   88.2074   10.0409 C.ar    1  UNL1        0.0000
     16 C          61.3420   88.0685    9.6592 C.ar    1  UNL1        0.0003
     17 C          62.4012   88.7565   10.4686 C.ar    1  UNL1        0.0077
     18 C          67.1931   92.4507   11.9131 C.3     1  UNL1        0.0882
     19 N          66.9975   93.7332   11.1602 N.3     1  UNL1       -0.2719
     20 C          67.5564   93.8832    9.7763 C.3     1  UNL1        0.0721
     21 C          67.3608   95.1658    9.0234 C.3     1  UNL1        0.0174
     22 C          66.6064   96.2982    9.6543 C.3     1  UNL1        0.0029
     23 C          66.0475   96.1483   11.0383 C.3     1  UNL1        0.0174
     24 C          66.2430   94.8658   11.7912 C.3     1  UNL1        0.0721
@<TRIPOS>BOND
     1     1     2    1
     2     2     3    2
     3     3     4    1
     4     4     5    2
     5     5     6    1
     6     6     7    2
     7     7    12    1
     8    12    13   ar
     9    13    14   ar
    10    14    15   ar
    11    15    16   ar
    12    16    17   ar
    13     7     8    1
    14     8     9    2
    15     9    10    1
    16    10    18    1
    17    18    19    1
    18    19    20    1
    19    20    21    1
    20    21    22    1
    21    22    23    1
    22    23    24    1
    23    10     2    1
    24    24    19    1
    25     9     5    1
    26    17    12   ar
    27     1    11    1
@<TRIPOS>MOLECULE
*****
 24 27 0 0 0
SMALL
GASTEIGER

@<TRIPOS>ATOM
      1 O          63.0873   81.2980   11.9376 O.2     1  UNL1       -0.5093
      2 C          63.0815   82.4061   12.9487 C.2     1  UNL1        0.1202
      3 C          62.6767   82.1263   14.3656 C.2     1  UNL1        0.0365
      4 C          62.6709   83.2344   15.3767 C.2     1  UNL1        0.0529
      5 C          63.0700   84.6221   14.9708 C.2     1  UNL1        0.2323
      6 N          63.1608   85.9061   15.7410 N.2     1  UNL1       -0.0308
      7 C          63.6218   86.9794   14.8000 C.2     1  UNL1        0.3752
      8 N          63.8159   86.3588   13.4482 N.2     1  UNL1       -0.0346
      9 C          63.4748   84.9019   13.5538 C.2     1  UNL1        0.2215
     10 C          63.4806   83.7939   12.5428 C.3     1  UNL1        0.1420
     11 H          62.8381   80.4311   12.1911 H       1  UNL1        0.2917
     12 C          63.8488   88.4204   15.1493 C.ar    1  UNL1        0.0884
     13 C          63.2591   88.9894   16.4056 C.ar    1  UNL1        0.0077
     14 C          63.4862   90.4305   16.7549 C.ar    1  UNL1        0.0003
     15 C          64.3030   91.3024   15.8480 C.ar    1  UNL1        0.0000
     16 C          64.8928   90.7333   14.5916 C.ar    1  UNL1        0.0003
     17 C          64.6656   89.2923   14.2423 C.ar    1  UNL1        0.0077
     18 C          63.8855   84.0736   11.1258 C.3     1  UNL1        0.0882
     19 N          62.9454   84.7944   10.2055 N.3     1  UNL1       -0.2719
     20 C          63.1689   84.7536    8.7228 C.3     1  UNL1        0.0721
     21 C          62.2288   85.4744    7.8026 C.3     1  UNL1        0.0174
     22 C          61.0654   86.2358    8.3651 C.3     1  UNL1        0.0029
     23 C          60.8419   86.2766    9.8478 C.3     1  UNL1        0.0174
     24 C          61.7819   85.5558   10.7681 C.3     1  UNL1        0.0721
@<TRIPOS>BOND
     1     1     2    1
     2     2     3    2
     3     3     4    1
     4     4     5    2
     5     5     6    1
     6     6     7    2
     7     7    12    1
     8    12    13   ar
     9    13    14   ar
    10    14    15   ar
    11    15    16   ar
    12    16    17   ar
    13     7     8    1
    14     8     9    2
    15     9    10    1
    16    10    18    1
    17    18    19    1
    18    19    20    1
    19    20    21    1
    20    21    22    1
    21    22    23    1
    22    23    24    1
    23    10     2    1
    24    24    19    1
    25     9     5    1
    26    17    12   ar
    27     1    11    1
