@<TRIPOS>MOLECULE
*****
 34 36 0 0 0
SMALL
GASTEIGER

@<TRIPOS>ATOM
      1 O          64.2748   84.1603   14.8835 O.2     1  UNL1       -0.2262
      2 C          63.6879   84.9407   13.7449 C.2     1  UNL1        0.4054
      3 N          63.7852   86.4375   13.7327 N.am    1  UNL1       -0.2432
      4 C          63.1984   87.2180   12.5941 C.3     1  UNL1        0.1141
      5 C          63.2957   88.7148   12.5819 C.3     1  UNL1        0.0943
      6 N          63.9799   89.4311   13.7082 N.3     1  UNL1       -0.2659
      7 C          64.5667   88.6506   14.8468 C.3     1  UNL1        0.0943
      8 C          64.4694   87.1538   14.8590 C.3     1  UNL1        0.1141
      9 O          63.0037   84.2244   12.6185 O.3     1  UNL1       -0.4205
     10 C          63.4098   82.8248   12.2632 C.3     1  UNL1        0.3579
     11 C          63.1465   81.7013   13.2215 C.3     1  UNL1        0.4429
     12 F          62.8833   80.5778   14.1799 F       1  UNL1       -0.1661
     13 F          64.6064   81.3568   13.2187 F       1  UNL1       -0.1661
     14 F          61.6867   82.0458   13.2244 F       1  UNL1       -0.1661
     15 C          64.0791   82.5488   10.9495 C.3     1  UNL1        0.4429
     16 F          64.7485   82.2727    9.6358 F       1  UNL1       -0.1661
     17 F          63.1143   81.4293   10.6932 F       1  UNL1       -0.1661
     18 F          65.0440   83.6683   11.2058 F       1  UNL1       -0.1661
     19 C          64.0772   90.9279   13.6960 C.3     1  UNL1        0.1005
     20 C          64.7924   91.6239   12.5762 C.ar    1  UNL1        0.0072
     21 C          64.2056   91.6220   11.1957 C.ar    1  UNL1       -0.0017
     22 C          64.9208   92.3180   10.0758 C.ar    1  UNL1        0.0037
     23 C          66.2228   93.0158   10.3365 C.ar    1  UNL1        0.0726
     24 C          66.8096   93.0177   11.7169 C.ar    1  UNL1        0.0181
     25 C          66.0944   92.3217   12.8368 C.ar    1  UNL1        0.0451
     26 N          66.6811   92.3235   14.2172 N.pl3   1  UNL1       -0.3077
     27 C          65.9811   92.7535   15.4722 C.3     1  UNL1        0.0908
     28 C          66.9382   92.5915   16.6157 C.3     1  UNL1        0.0232
     29 C          68.2299   92.0613   16.0674 C.3     1  UNL1        0.0232
     30 C          68.0710   91.8957   14.5851 C.3     1  UNL1        0.0908
     31 C          66.9380   93.7118    9.2165 C.3     1  UNL1        0.4186
     32 F          67.6532   94.4077    8.0967 F       1  UNL1       -0.1659
     33 F          66.0746   94.9218    9.4170 F       1  UNL1       -0.1659
     34 F          67.8015   92.5018    9.0160 F       1  UNL1       -0.1659
@<TRIPOS>BOND
     1     1     2    2
     2     2     9    1
     3     9    10    1
     4    10    11    1
     5    11    12    1
     6    11    13    1
     7    11    14    1
     8    10    15    1
     9    15    16    1
    10    15    17    1
    11    15    18    1
    12     2     3   am
    13     3     4    1
    14     4     5    1
    15     5     6    1
    16     6    19    1
    17    19    20    1
    18    20    21   ar
    19    21    22   ar
    20    22    23   ar
    21    23    31    1
    22    31    32    1
    23    31    33    1
    24    31    34    1
    25    23    24   ar
    26    24    25   ar
    27    25    26    1
    28    26    27    1
    29    27    28    1
    30    28    29    1
    31    29    30    1
    32     6     7    1
    33     7     8    1
    34     8     3    1
    35    25    20   ar
    36    30    26    1
@<TRIPOS>MOLECULE
*****
 34 36 0 0 0
SMALL
GASTEIGER

@<TRIPOS>ATOM
      1 O          64.4344   84.1002   14.6714 O.2     1  UNL1       -0.2262
      2 C          63.7508   84.8891   13.5943 C.2     1  UNL1        0.4054
      3 N          63.8091   86.3879   13.6107 N.am    1  UNL1       -0.2432
      4 C          63.1255   87.1769   12.5336 C.3     1  UNL1        0.1141
      5 C          63.1838   88.6757   12.5500 C.3     1  UNL1        0.0943
      6 N          63.9257   89.3855   13.6435 N.3     1  UNL1       -0.2659
      7 C          64.6093   88.5965   14.7206 C.3     1  UNL1        0.0943
      8 C          64.5510   87.0977   14.7042 C.3     1  UNL1        0.1141
      9 O          63.0090   84.1793   12.5009 O.3     1  UNL1       -0.4205
     10 C          63.3775   82.7719   12.1356 C.3     1  UNL1        0.3579
     11 C          64.0806   82.4928   10.8403 C.3     1  UNL1        0.4429
     12 F          64.7836   82.2137    9.5450 F       1  UNL1       -0.1661
     13 F          63.1170   81.3786   10.5574 F       1  UNL1       -0.1661
     14 F          65.0442   83.6070   11.1232 F       1  UNL1       -0.1661
     15 C          63.0429   81.6436   13.0657 C.3     1  UNL1        0.4429
     16 F          62.7083   80.5153   13.9957 F       1  UNL1       -0.1661
     17 F          61.5845   81.9693   12.9362 F       1  UNL1       -0.1661
     18 F          64.5013   81.3179   13.1952 F       1  UNL1       -0.1661
     19 C          63.9840   90.8842   13.6599 C.3     1  UNL1        0.1005
     20 C          64.7096   91.6185   12.5717 C.ar    1  UNL1        0.0072
     21 C          64.1584   91.6281   11.1766 C.ar    1  UNL1       -0.0017
     22 C          64.8840   92.3623   10.0885 C.ar    1  UNL1        0.0037
     23 C          66.1610   93.0871   10.3952 C.ar    1  UNL1        0.0726
     24 C          66.7122   93.0776   11.7902 C.ar    1  UNL1        0.0181
     25 C          65.9866   92.3433   12.8785 C.ar    1  UNL1        0.0451
     26 N          66.5378   92.3338   14.2734 N.pl3   1  UNL1       -0.3077
     27 C          65.7557   92.5660   15.5321 C.3     1  UNL1        0.0908
     28 C          66.7024   92.4662   16.6913 C.3     1  UNL1        0.0232
     29 C          68.0698   92.1723   16.1490 C.3     1  UNL1        0.0232
     30 C          67.9680   92.0905   14.6547 C.3     1  UNL1        0.0908
     31 C          66.8866   93.8215    9.3070 C.3     1  UNL1        0.4186
     32 F          67.6123   94.5557    8.2187 F       1  UNL1       -0.1659
     33 F          66.0242   95.0255    9.5442 F       1  UNL1       -0.1659
     34 F          67.7491   92.6174    9.0697 F       1  UNL1       -0.1659
@<TRIPOS>BOND
     1     1     2    2
     2     2     9    1
     3     9    10    1
     4    10    11    1
     5    11    12    1
     6    11    13    1
     7    11    14    1
     8    10    15    1
     9    15    16    1
    10    15    17    1
    11    15    18    1
    12     2     3   am
    13     3     4    1
    14     4     5    1
    15     5     6    1
    16     6    19    1
    17    19    20    1
    18    20    21   ar
    19    21    22   ar
    20    22    23   ar
    21    23    31    1
    22    31    32    1
    23    31    33    1
    24    31    34    1
    25    23    24   ar
    26    24    25   ar
    27    25    26    1
    28    26    27    1
    29    27    28    1
    30    28    29    1
    31    29    30    1
    32     6     7    1
    33     7     8    1
    34     8     3    1
    35    25    20   ar
    36    30    26    1
@<TRIPOS>MOLECULE
*****
 34 36 0 0 0
SMALL
GASTEIGER

@<TRIPOS>ATOM
      1 O          60.9135   86.0882    9.6569 O.2     1  UNL1       -0.2262
      2 C          61.6379   86.3869   10.9360 C.2     1  UNL1        0.4054
      3 N          62.2726   87.7303   11.1423 N.am    1  UNL1       -0.2432
      4 C          62.9970   88.0290   12.4213 C.3     1  UNL1        0.1141
      5 C          63.6316   89.3724   12.6277 C.3     1  UNL1        0.0943
      6 N          63.5419   90.4170   11.5550 N.3     1  UNL1       -0.2659
      7 C          62.8175   90.1183   10.2760 C.3     1  UNL1        0.0943
      8 C          62.1828   88.7749   10.0696 C.3     1  UNL1        0.1141
      9 O          61.7277   85.3423   12.0086 O.3     1  UNL1       -0.4205
     10 C          62.9085   84.4186   12.0591 C.3     1  UNL1        0.3579
     11 C          63.1184   83.4095   10.9693 C.3     1  UNL1        0.4429
     12 F          63.3283   82.4003    9.8796 F       1  UNL1       -0.1661
     13 F          62.4974   82.3501   11.8307 F       1  UNL1       -0.1661
     14 F          63.7394   84.4688   10.1079 F       1  UNL1       -0.1661
     15 C          63.8793   84.5041   13.1993 C.3     1  UNL1        0.4429
     16 F          64.8501   84.5896   14.3396 F       1  UNL1       -0.1661
     17 F          64.9271   83.8387   12.3571 F       1  UNL1       -0.1661
     18 F          62.8315   85.1695   14.0416 F       1  UNL1       -0.1661
     19 C          64.1766   91.7604   11.7614 C.3     1  UNL1        0.1005
     20 C          65.2606   91.9285   12.7843 C.ar    1  UNL1        0.0072
     21 C          65.1713   91.2083   14.0971 C.ar    1  UNL1       -0.0017
     22 C          66.2553   91.3765   15.1201 C.ar    1  UNL1        0.0037
     23 C          67.4287   92.2649   14.8304 C.ar    1  UNL1        0.0726
     24 C          67.5180   92.9851   13.5177 C.ar    1  UNL1        0.0181
     25 C          66.4340   92.8169   12.4946 C.ar    1  UNL1        0.0451
     26 N          66.5233   93.5372   11.1819 N.pl3   1  UNL1       -0.3077
     27 C          67.2593   93.0624    9.9641 C.3     1  UNL1        0.0908
     28 C          67.0832   94.0904    8.8861 C.3     1  UNL1        0.0232
     29 C          66.2384   95.2005    9.4376 C.3     1  UNL1        0.0232
     30 C          65.8924   94.8586   10.8565 C.3     1  UNL1        0.0908
     31 C          68.5128   92.4330   15.8535 C.3     1  UNL1        0.4186
     32 F          69.5968   92.6012   16.8765 F       1  UNL1       -0.1659
     33 F          67.4986   92.2980   16.9504 F       1  UNL1       -0.1659
     34 F          69.5269   92.5681   14.7566 F       1  UNL1       -0.1659
@<TRIPOS>BOND
     1     1     2    2
     2     2     9    1
     3     9    10    1
     4    10    11    1
     5    11    12    1
     6    11    13    1
     7    11    14    1
     8    10    15    1
     9    15    16    1
    10    15    17    1
    11    15    18    1
    12     2     3   am
    13     3     4    1
    14     4     5    1
    15     5     6    1
    16     6    19    1
    17    19    20    1
    18    20    21   ar
    19    21    22   ar
    20    22    23   ar
    21    23    31    1
    22    31    32    1
    23    31    33    1
    24    31    34    1
    25    23    24   ar
    26    24    25   ar
    27    25    26    1
    28    26    27    1
    29    27    28    1
    30    28    29    1
    31    29    30    1
    32     6     7    1
    33     7     8    1
    34     8     3    1
    35    25    20   ar
    36    30    26    1
@<TRIPOS>MOLECULE
*****
 34 36 0 0 0
SMALL
GASTEIGER

@<TRIPOS>ATOM
      1 O          64.8126   83.1965   14.2504 O.2     1  UNL1       -0.2262
      2 C          64.0683   83.9654   13.1994 C.2     1  UNL1        0.4054
      3 N          63.8836   85.4470   13.3437 N.am    1  UNL1       -0.2432
      4 C          63.1393   86.2159   12.2927 C.3     1  UNL1        0.1141
      5 C          62.9545   87.6974   12.4371 C.3     1  UNL1        0.0943
      6 N          63.5140   88.4101   13.6325 N.3     1  UNL1       -0.2659
      7 C          64.2583   87.6411   14.6835 C.3     1  UNL1        0.0943
      8 C          64.4431   86.1596   14.5391 C.3     1  UNL1        0.1141
      9 O          63.5088   83.2528   12.0039 O.3     1  UNL1       -0.4205
     10 C          63.0930   81.8158   12.1141 C.3     1  UNL1        0.3579
     11 C          63.1211   80.9319   10.9025 C.3     1  UNL1        0.4429
     12 F          63.1493   80.0481    9.6909 F       1  UNL1       -0.1661
     13 F          63.6269   82.0783   10.0779 F       1  UNL1       -0.1661
     14 F          62.6154   79.7855   11.7270 F       1  UNL1       -0.1661
     15 C          62.6492   81.2627   13.4358 C.3     1  UNL1        0.4429
     16 F          62.2053   80.7095   14.7575 F       1  UNL1       -0.1661
     17 F          64.0190   80.6932   13.6576 F       1  UNL1       -0.1661
     18 F          61.2793   81.8321   13.2141 F       1  UNL1       -0.1661
     19 C          63.3292   89.8916   13.7768 C.3     1  UNL1        0.1005
     20 C          64.1738   90.8347   12.9723 C.ar    1  UNL1        0.0072
     21 C          65.4212   91.4179   13.5671 C.ar    1  UNL1       -0.0017
     22 C          66.2658   92.3610   12.7626 C.ar    1  UNL1        0.0037
     23 C          65.8629   92.7209   11.3633 C.ar    1  UNL1        0.0726
     24 C          64.6156   92.1377   10.7684 C.ar    1  UNL1        0.0181
     25 C          63.7709   91.1946   11.5730 C.ar    1  UNL1        0.0451
     26 N          62.5235   90.6114   10.9781 N.pl3   1  UNL1       -0.3077
     27 C          61.1263   90.8168   11.4836 C.3     1  UNL1        0.0908
     28 C          60.1935   90.0528   10.5913 C.3     1  UNL1        0.0232
     29 C          61.0143   89.3752    9.5343 C.3     1  UNL1        0.0232
     30 C          62.4543   89.7205    9.7734 C.3     1  UNL1        0.0908
     31 C          66.7076   93.6640   10.5587 C.3     1  UNL1        0.4186
     32 F          67.5522   94.6070    9.7542 F       1  UNL1       -0.1659
     33 F          65.9863   94.8296   11.1679 F       1  UNL1       -0.1659
     34 F          67.4288   92.4984    9.9496 F       1  UNL1       -0.1659
@<TRIPOS>BOND
     1     1     2    2
     2     2     9    1
     3     9    10    1
     4    10    11    1
     5    11    12    1
     6    11    13    1
     7    11    14    1
     8    10    15    1
     9    15    16    1
    10    15    17    1
    11    15    18    1
    12     2     3   am
    13     3     4    1
    14     4     5    1
    15     5     6    1
    16     6    19    1
    17    19    20    1
    18    20    21   ar
    19    21    22   ar
    20    22    23   ar
    21    23    31    1
    22    31    32    1
    23    31    33    1
    24    31    34    1
    25    23    24   ar
    26    24    25   ar
    27    25    26    1
    28    26    27    1
    29    27    28    1
    30    28    29    1
    31    29    30    1
    32     6     7    1
    33     7     8    1
    34     8     3    1
    35    25    20   ar
    36    30    26    1
@<TRIPOS>MOLECULE
*****
 34 36 0 0 0
SMALL
GASTEIGER

@<TRIPOS>ATOM
      1 O          60.8061   86.1776    9.5477 O.2     1  UNL1       -0.2262
      2 C          61.5197   86.4666   10.8351 C.2     1  UNL1        0.4054
      3 N          62.1794   87.7973   11.0446 N.am    1  UNL1       -0.2432
      4 C          62.8929   88.0863   12.3319 C.3     1  UNL1        0.1141
      5 C          63.5526   89.4171   12.5414 C.3     1  UNL1        0.0943
      6 N          63.4987   90.4589   11.4636 N.3     1  UNL1       -0.2659
      7 C          62.7851   90.1699   10.1763 C.3     1  UNL1        0.0943
      8 C          62.1255   88.8391    9.9667 C.3     1  UNL1        0.1141
      9 O          61.5736   85.4248   11.9129 O.3     1  UNL1       -0.4205
     10 C          62.7552   84.5058   12.0093 C.3     1  UNL1        0.3579
     11 C          63.5661   84.4566   13.2704 C.3     1  UNL1        0.4429
     12 F          64.3769   84.4074   14.5313 F       1  UNL1       -0.1661
     13 F          64.7797   84.0767   12.4751 F       1  UNL1       -0.1661
     14 F          62.3524   84.8365   14.0657 F       1  UNL1       -0.1661
     15 C          63.1259   83.6361   10.8449 C.3     1  UNL1        0.4429
     16 F          63.4967   82.7663    9.6804 F       1  UNL1       -0.1661
     17 F          63.6175   84.8420   10.1007 F       1  UNL1       -0.1661
     18 F          62.6343   82.4301   11.5891 F       1  UNL1       -0.1661
     19 C          64.1584   91.7896   11.6731 C.3     1  UNL1        0.1005
     20 C          65.2338   91.9390   12.7080 C.ar    1  UNL1        0.0072
     21 C          65.1390   91.1864   14.0022 C.ar    1  UNL1       -0.0017
     22 C          66.2145   91.3358   15.0371 C.ar    1  UNL1        0.0037
     23 C          67.3847   92.2376   14.7779 C.ar    1  UNL1        0.0726
     24 C          67.4795   92.9902   13.4839 C.ar    1  UNL1        0.0181
     25 C          66.4040   92.8409   12.4489 C.ar    1  UNL1        0.0451
     26 N          66.4988   93.5934   11.1548 N.pl3   1  UNL1       -0.3077
     27 C          67.2420   93.1503    9.9296 C.3     1  UNL1        0.0908
     28 C          67.0696   94.2042    8.8763 C.3     1  UNL1        0.0232
     29 C          66.2198   95.2988    9.4506 C.3     1  UNL1        0.0232
     30 C          65.8670   94.9213   10.8588 C.3     1  UNL1        0.0908
     31 C          68.4602   92.3870   15.8129 C.3     1  UNL1        0.4186
     32 F          69.5355   92.5363   16.8479 F       1  UNL1       -0.1659
     33 F          69.4922   92.4746   14.7280 F       1  UNL1       -0.1659
     34 F          67.4281   92.2994   16.8979 F       1  UNL1       -0.1659
@<TRIPOS>BOND
     1     1     2    2
     2     2     9    1
     3     9    10    1
     4    10    11    1
     5    11    12    1
     6    11    13    1
     7    11    14    1
     8    10    15    1
     9    15    16    1
    10    15    17    1
    11    15    18    1
    12     2     3   am
    13     3     4    1
    14     4     5    1
    15     5     6    1
    16     6    19    1
    17    19    20    1
    18    20    21   ar
    19    21    22   ar
    20    22    23   ar
    21    23    31    1
    22    31    32    1
    23    31    33    1
    24    31    34    1
    25    23    24   ar
    26    24    25   ar
    27    25    26    1
    28    26    27    1
    29    27    28    1
    30    28    29    1
    31    29    30    1
    32     6     7    1
    33     7     8    1
    34     8     3    1
    35    25    20   ar
    36    30    26    1
@<TRIPOS>MOLECULE
*****
 34 36 0 0 0
SMALL
GASTEIGER

@<TRIPOS>ATOM
      1 O          66.9416   93.6101   13.1728 O.2     1  UNL1       -0.2262
      2 C          65.9803   93.3841   12.0437 C.2     1  UNL1        0.4054
      3 N          65.0115   92.2404   12.1011 N.am    1  UNL1       -0.2432
      4 C          64.0502   92.0144   10.9721 C.3     1  UNL1        0.1141
      5 C          63.0813   90.8707   11.0295 C.3     1  UNL1        0.0943
      6 N          63.0738   89.9530   12.2160 N.3     1  UNL1       -0.2659
      7 C          64.0350   90.1791   13.3451 C.3     1  UNL1        0.0943
      8 C          65.0039   91.3228   13.2876 C.3     1  UNL1        0.1141
      9 O          65.9879   94.3018   10.8572 O.3     1  UNL1       -0.4205
     10 C          67.0890   94.2073    9.8430 C.3     1  UNL1        0.3579
     11 C          67.8515   92.9257    9.6810 C.3     1  UNL1        0.4429
     12 F          68.6140   91.6442    9.5190 F       1  UNL1       -0.1661
     13 F          69.1424   93.6884    9.7235 F       1  UNL1       -0.1661
     14 F          66.5606   92.1630    9.6385 F       1  UNL1       -0.1661
     15 C          67.4276   95.3943    8.9908 C.3     1  UNL1        0.4429
     16 F          67.7662   96.5814    8.1387 F       1  UNL1       -0.1661
     17 F          67.4360   96.2675   10.2104 F       1  UNL1       -0.1661
     18 F          67.4191   94.5212    7.7712 F       1  UNL1       -0.1661
     19 C          62.1049   88.8093   12.2735 C.3     1  UNL1        0.1005
     20 C          61.9006   87.9383   11.0695 C.ar    1  UNL1        0.0072
     21 C          61.3009   88.5135    9.8207 C.ar    1  UNL1       -0.0017
     22 C          61.0966   87.6425    8.6167 C.ar    1  UNL1        0.0037
     23 C          61.4920   86.1962    8.6616 C.ar    1  UNL1        0.0726
     24 C          62.0916   85.6210    9.9104 C.ar    1  UNL1        0.0181
     25 C          62.2959   86.4920   11.1144 C.ar    1  UNL1        0.0451
     26 N          62.8956   85.9168   12.3631 N.pl3   1  UNL1       -0.3077
     27 C          62.6839   84.5258   12.8831 C.3     1  UNL1        0.0908
     28 C          63.4697   84.3809   14.1525 C.3     1  UNL1        0.0232
     29 C          64.1671   85.6823   14.4172 C.3     1  UNL1        0.0232
     30 C          63.8123   86.6315   13.3113 C.3     1  UNL1        0.0908
     31 C          61.2876   85.3251    7.4576 C.3     1  UNL1        0.4186
     32 F          61.0832   84.4541    6.2536 F       1  UNL1       -0.1659
     33 F          62.7434   84.9642    7.4715 F       1  UNL1       -0.1659
     34 F          59.8318   85.6860    7.4436 F       1  UNL1       -0.1659
@<TRIPOS>BOND
     1     1     2    2
     2     2     9    1
     3     9    10    1
     4    10    11    1
     5    11    12    1
     6    11    13    1
     7    11    14    1
     8    10    15    1
     9    15    16    1
    10    15    17    1
    11    15    18    1
    12     2     3   am
    13     3     4    1
    14     4     5    1
    15     5     6    1
    16     6    19    1
    17    19    20    1
    18    20    21   ar
    19    21    22   ar
    20    22    23   ar
    21    23    31    1
    22    31    32    1
    23    31    33    1
    24    31    34    1
    25    23    24   ar
    26    24    25   ar
    27    25    26    1
    28    26    27    1
    29    27    28    1
    30    28    29    1
    31    29    30    1
    32     6     7    1
    33     7     8    1
    34     8     3    1
    35    25    20   ar
    36    30    26    1
@<TRIPOS>MOLECULE
*****
 34 36 0 0 0
SMALL
GASTEIGER

@<TRIPOS>ATOM
      1 O          66.3513   93.3524   12.8278 O.2     1  UNL1       -0.2262
      2 C          65.5077   93.1068   11.6122 C.2     1  UNL1        0.4054
      3 N          64.5154   91.9821   11.6026 N.am    1  UNL1       -0.2432
      4 C          63.6717   91.7365   10.3869 C.3     1  UNL1        0.1141
      5 C          62.6794   90.6117   10.3773 C.3     1  UNL1        0.0943
      6 N          62.5307   89.7325   11.5835 N.3     1  UNL1       -0.2659
      7 C          63.3743   89.9780   12.7991 C.3     1  UNL1        0.0943
      8 C          64.3666   91.1028   12.8087 C.3     1  UNL1        0.1141
      9 O          65.6564   93.9861   10.4060 O.3     1  UNL1       -0.4205
     10 C          66.9769   94.0737    9.7000 C.3     1  UNL1        0.3579
     11 C          67.3761   95.3449    9.0109 C.3     1  UNL1        0.4429
     12 F          67.7753   96.6160    8.3218 F       1  UNL1       -0.1661
     13 F          67.4310   94.6172    7.7004 F       1  UNL1       -0.1661
     14 F          67.3212   96.0725   10.3213 F       1  UNL1       -0.1661
     15 C          67.8983   92.8901    9.6829 C.3     1  UNL1        0.4429
     16 F          68.8196   91.7066    9.6659 F       1  UNL1       -0.1661
     17 F          69.0819   93.8112    9.7021 F       1  UNL1       -0.1661
     18 F          66.7146   91.9690    9.6637 F       1  UNL1       -0.1661
     19 C          61.5383   88.6077   11.5739 C.3     1  UNL1        0.1005
     20 C          62.0081   87.1946   11.3941 C.ar    1  UNL1        0.0072
     21 C          62.8989   86.5637   12.4230 C.ar    1  UNL1       -0.0017
     22 C          63.3687   85.1506   12.2432 C.ar    1  UNL1        0.0037
     23 C          62.9477   84.3683   11.0346 C.ar    1  UNL1        0.0726
     24 C          62.0569   84.9991   10.0058 C.ar    1  UNL1        0.0181
     25 C          61.5871   86.4123   10.1855 C.ar    1  UNL1        0.0451
     26 N          60.6964   87.0431    9.1566 N.pl3   1  UNL1       -0.3077
     27 C          59.8056   86.3136    8.1952 C.3     1  UNL1        0.0908
     28 C          59.0987   87.3337    7.3529 C.3     1  UNL1        0.0232
     29 C          59.5525   88.6938    7.7938 C.3     1  UNL1        0.0232
     30 C          60.5399   88.5141    8.9086 C.3     1  UNL1        0.0908
     31 C          63.4175   82.9551   10.8549 C.3     1  UNL1        0.4186
     32 F          63.8874   81.5420   10.6751 F       1  UNL1       -0.1659
     33 F          62.3222   82.4757   11.7605 F       1  UNL1       -0.1659
     34 F          64.5129   83.4345    9.9492 F       1  UNL1       -0.1659
@<TRIPOS>BOND
     1     1     2    2
     2     2     9    1
     3     9    10    1
     4    10    11    1
     5    11    12    1
     6    11    13    1
     7    11    14    1
     8    10    15    1
     9    15    16    1
    10    15    17    1
    11    15    18    1
    12     2     3   am
    13     3     4    1
    14     4     5    1
    15     5     6    1
    16     6    19    1
    17    19    20    1
    18    20    21   ar
    19    21    22   ar
    20    22    23   ar
    21    23    31    1
    22    31    32    1
    23    31    33    1
    24    31    34    1
    25    23    24   ar
    26    24    25   ar
    27    25    26    1
    28    26    27    1
    29    27    28    1
    30    28    29    1
    31    29    30    1
    32     6     7    1
    33     7     8    1
    34     8     3    1
    35    25    20   ar
    36    30    26    1
@<TRIPOS>MOLECULE
*****
 34 36 0 0 0
SMALL
GASTEIGER

@<TRIPOS>ATOM
      1 O          64.2489   82.9721   15.9620 O.2     1  UNL1       -0.2262
      2 C          64.3091   83.7742   14.6959 C.2     1  UNL1        0.4054
      3 N          64.0723   85.2549   14.7342 N.am    1  UNL1       -0.2432
      4 C          64.1326   86.0570   13.4681 C.3     1  UNL1        0.1141
      5 C          63.8958   87.5377   13.5064 C.3     1  UNL1        0.0943
      6 N          63.5988   88.2163   14.8107 N.3     1  UNL1       -0.2659
      7 C          63.5386   87.4142   16.0767 C.3     1  UNL1        0.0943
      8 C          63.7754   85.9335   16.0385 C.3     1  UNL1        0.1141
      9 O          64.6061   83.0956   13.3916 O.3     1  UNL1       -0.4205
     10 C          63.4905   82.7770   12.4408 C.3     1  UNL1        0.3579
     11 C          62.3869   81.8527   12.8623 C.3     1  UNL1        0.4429
     12 F          61.2832   80.9284   13.2838 F       1  UNL1       -0.1661
     13 F          61.8975   82.8817   13.8377 F       1  UNL1       -0.1661
     14 F          62.8762   80.8236   11.8869 F       1  UNL1       -0.1661
     15 C          63.4785   83.3828   11.0687 C.3     1  UNL1        0.4429
     16 F          63.4666   83.9885    9.6965 F       1  UNL1       -0.1661
     17 F          64.7495   82.6582   10.7378 F       1  UNL1       -0.1661
     18 F          62.2075   84.1073   11.3996 F       1  UNL1       -0.1661
     19 C          63.3620   89.6970   14.8489 C.3     1  UNL1        0.1005
     20 C          64.1320   90.6035   13.9350 C.ar    1  UNL1        0.0072
     21 C          65.3374   91.3358   14.4458 C.ar    1  UNL1       -0.0017
     22 C          66.1074   92.2423   13.5319 C.ar    1  UNL1        0.0037
     23 C          65.6720   92.4166   12.1071 C.ar    1  UNL1        0.0726
     24 C          64.4667   91.6844   11.5962 C.ar    1  UNL1        0.0181
     25 C          63.6966   90.7779   12.5102 C.ar    1  UNL1        0.0451
     26 N          62.4913   90.0457   11.9993 N.pl3   1  UNL1       -0.3077
     27 C          62.4930   88.9558   10.9688 C.3     1  UNL1        0.0908
     28 C          61.0754   88.5113   10.7619 C.3     1  UNL1        0.0232
     29 C          60.1975   89.3265   11.6646 C.3     1  UNL1        0.0232
     30 C          61.0726   90.2748   12.4293 C.3     1  UNL1        0.0908
     31 C          66.4420   93.3232   11.1931 C.3     1  UNL1        0.4186
     32 F          67.2120   94.2297   10.2792 F       1  UNL1       -0.1659
     33 F          66.8613   92.1397   10.3724 F       1  UNL1       -0.1659
     34 F          66.0228   94.5066   12.0138 F       1  UNL1       -0.1659
@<TRIPOS>BOND
     1     1     2    2
     2     2     9    1
     3     9    10    1
     4    10    11    1
     5    11    12    1
     6    11    13    1
     7    11    14    1
     8    10    15    1
     9    15    16    1
    10    15    17    1
    11    15    18    1
    12     2     3   am
    13     3     4    1
    14     4     5    1
    15     5     6    1
    16     6    19    1
    17    19    20    1
    18    20    21   ar
    19    21    22   ar
    20    22    23   ar
    21    23    31    1
    22    31    32    1
    23    31    33    1
    24    31    34    1
    25    23    24   ar
    26    24    25   ar
    27    25    26    1
    28    26    27    1
    29    27    28    1
    30    28    29    1
    31    29    30    1
    32     6     7    1
    33     7     8    1
    34     8     3    1
    35    25    20   ar
    36    30    26    1
@<TRIPOS>MOLECULE
*****
 34 36 0 0 0
SMALL
GASTEIGER

@<TRIPOS>ATOM
      1 O          66.7980   93.5315   13.0747 O.2     1  UNL1       -0.2262
      2 C          65.9162   93.3418   11.8762 C.2     1  UNL1        0.4054
      3 N          64.9503   92.1951   11.8297 N.am    1  UNL1       -0.2432
      4 C          64.0685   92.0054   10.6312 C.3     1  UNL1        0.1141
      5 C          63.1026   90.8587   10.5847 C.3     1  UNL1        0.0943
      6 N          63.0185   89.9017   11.7367 N.3     1  UNL1       -0.2659
      7 C          63.9003   90.0915   12.9352 C.3     1  UNL1        0.0943
      8 C          64.8662   91.2381   12.9817 C.3     1  UNL1        0.1141
      9 O          66.0004   94.2987   10.7242 O.3     1  UNL1       -0.4205
     10 C          67.1290   94.1925    9.7418 C.3     1  UNL1        0.3579
     11 C          67.9416   92.9339    9.6663 C.3     1  UNL1        0.4429
     12 F          68.7542   91.6754    9.5907 F       1  UNL1       -0.1661
     13 F          69.1975   93.7341    9.8460 F       1  UNL1       -0.1661
     14 F          66.6857   92.1338    9.4865 F       1  UNL1       -0.1661
     15 C          67.4449   95.3449    8.8351 C.3     1  UNL1        0.4429
     16 F          67.7609   96.4972    7.9284 F       1  UNL1       -0.1661
     17 F          67.3693   96.2840   10.0023 F       1  UNL1       -0.1661
     18 F          67.5206   94.4058    7.6680 F       1  UNL1       -0.1661
     19 C          62.0526   88.7551   11.6902 C.3     1  UNL1        0.1005
     20 C          62.5308   87.3601   11.9644 C.ar    1  UNL1        0.0072
     21 C          63.4242   87.0907   13.1389 C.ar    1  UNL1       -0.0017
     22 C          63.9024   85.6957   13.4131 C.ar    1  UNL1        0.0037
     23 C          63.4872   84.5700   12.5129 C.ar    1  UNL1        0.0726
     24 C          62.5938   84.8393   11.3385 C.ar    1  UNL1        0.0181
     25 C          62.1155   86.2343   11.0643 C.ar    1  UNL1        0.0451
     26 N          61.2221   86.5036    9.8899 N.pl3   1  UNL1       -0.3077
     27 C          60.0016   87.3755    9.8922 C.3     1  UNL1        0.0908
     28 C          59.4175   87.3591    8.5107 C.3     1  UNL1        0.0232
     29 C          60.2771   86.4770    7.6545 C.3     1  UNL1        0.0232
     30 C          61.3924   85.9483    8.5069 C.3     1  UNL1        0.0908
     31 C          63.9654   83.1749   12.7872 C.3     1  UNL1        0.4186
     32 F          64.4436   81.7799   13.0614 F       1  UNL1       -0.1659
     33 F          63.4904   83.2908   14.2052 F       1  UNL1       -0.1659
     34 F          64.4403   83.0590   11.3691 F       1  UNL1       -0.1659
@<TRIPOS>BOND
     1     1     2    2
     2     2     9    1
     3     9    10    1
     4    10    11    1
     5    11    12    1
     6    11    13    1
     7    11    14    1
     8    10    15    1
     9    15    16    1
    10    15    17    1
    11    15    18    1
    12     2     3   am
    13     3     4    1
    14     4     5    1
    15     5     6    1
    16     6    19    1
    17    19    20    1
    18    20    21   ar
    19    21    22   ar
    20    22    23   ar
    21    23    31    1
    22    31    32    1
    23    31    33    1
    24    31    34    1
    25    23    24   ar
    26    24    25   ar
    27    25    26    1
    28    26    27    1
    29    27    28    1
    30    28    29    1
    31    29    30    1
    32     6     7    1
    33     7     8    1
    34     8     3    1
    35    25    20   ar
    36    30    26    1
