@<TRIPOS>MOLECULE
*****
 32 35 0 0 0
SMALL
GASTEIGER

@<TRIPOS>ATOM
      1 C          63.4547   91.9733   16.4359 C.3     1  UNL1        0.0311
      2 C          64.3634   91.0347   15.6987 C.3     1  UNL1        0.1470
      3 C          63.9295   89.6232   15.4349 C.2     1  UNL1        0.2450
      4 O          62.7034   89.0778   16.1051 O.2     1  UNL1       -0.2730
      5 N          64.7217   88.7573   14.5007 N.am    1  UNL1       -0.2680
      6 H          65.5265   89.1153   14.0609 H       1  UNL1        0.1563
      7 C          64.2878   87.3459   14.2369 C.ar    1  UNL1        0.1342
      8 C          64.6981   86.2477   15.1728 C.ar    1  UNL1        0.0345
      9 C          64.2642   84.8363   14.9089 C.ar    1  UNL1        0.0044
     10 C          63.4201   84.5230   13.7091 C.ar    1  UNL1        0.0193
     11 C          63.0099   85.6211   12.7733 C.ar    1  UNL1        0.1003
     12 N          63.4438   87.0326   13.0371 N.ar    1  UNL1       -0.2290
     13 C          62.9862   83.1116   13.4452 C.ar    1  UNL1        0.0015
     14 C          62.1805   82.3705   14.4708 C.ar    1  UNL1        0.0000
     15 C          61.7466   80.9591   14.2069 C.ar    1  UNL1        0.0000
     16 C          62.1184   80.2888   12.9175 C.ar    1  UNL1        0.0000
     17 C          62.9240   81.0299   11.8920 C.ar    1  UNL1        0.0000
     18 C          63.3579   82.4413   12.1559 C.ar    1  UNL1        0.0000
     19 N          65.7059   91.5075   15.2255 N.pl3   1  UNL1       -0.3257
     20 H          66.5209   91.2374   15.7073 H       1  UNL1        0.1472
     21 C          65.8068   92.3920   14.0182 C.ar    1  UNL1        0.0644
     22 C          65.2205   91.9468   12.7112 C.ar    1  UNL1        0.0175
     23 C          65.3214   92.8313   11.5040 C.ar    1  UNL1        0.0219
     24 C          66.0086   94.1609   11.6037 C.ar    1  UNL1        0.0987
     25 N          66.5948   94.6061   12.9106 N.ar    1  UNL1       -0.2410
     26 C          66.4939   93.7216   14.1178 C.ar    1  UNL1        0.1131
     27 C          66.1095   95.0454   10.3963 C.ar    1  UNL1        0.0971
     28 C          65.3138   96.2925   10.1480 C.ar    1  UNL1        0.0427
     29 C          65.7363   96.8559    8.8236 C.ar    1  UNL1        0.1217
     30 N          66.7930   95.9570    8.2534 N.ar    1  UNL1       -0.1676
     31 N          67.0237   94.8380    9.2253 N.ar    1  UNL1       -0.2473
     32 C          67.9975   93.7098    9.0560 C.3     1  UNL1        0.1538
@<TRIPOS>BOND
     1     2     1    1
     2     2    19    1
     3    19    21    1
     4    21    22   ar
     5    22    23   ar
     6    23    24   ar
     7    24    27    1
     8    27    28   ar
     9    28    29   ar
    10    29    30   ar
    11    30    31   ar
    12    31    32    1
    13    24    25   ar
    14    25    26   ar
    15     2     3    1
    16     3     4    2
    17     3     5   am
    18     5     7    1
    19     7     8   ar
    20     8     9   ar
    21     9    10   ar
    22    10    13    1
    23    13    14   ar
    24    14    15   ar
    25    15    16   ar
    26    16    17   ar
    27    17    18   ar
    28    10    11   ar
    29    11    12   ar
    30    26    21   ar
    31    12     7   ar
    32    31    27   ar
    33    18    13   ar
    34    19    20    1
    35     5     6    1
@<TRIPOS>MOLECULE
*****
 32 35 0 0 0
SMALL
GASTEIGER

@<TRIPOS>ATOM
      1 C          63.2573   90.6163   16.6772 C.3     1  UNL1        0.0311
      2 C          64.1626   90.6376   15.4814 C.3     1  UNL1        0.1470
      3 C          63.9089   89.7077   14.3320 C.2     1  UNL1        0.2450
      4 O          64.6974   88.4379   14.2065 O.2     1  UNL1       -0.2730
      5 N          62.8667   90.0477   13.3082 N.am    1  UNL1       -0.2680
      6 H          62.3491   90.8812   13.3906 H       1  UNL1        0.1563
      7 C          62.6129   89.1178   12.1588 C.ar    1  UNL1        0.1342
      8 C          62.2518   89.6711   10.8121 C.ar    1  UNL1        0.0345
      9 C          61.9981   88.7412    9.6628 C.ar    1  UNL1        0.0044
     10 C          62.1055   87.2581    9.8602 C.ar    1  UNL1        0.0193
     11 C          62.4666   86.7049   11.2068 C.ar    1  UNL1        0.1003
     12 N          62.7203   87.6348   12.3562 N.ar    1  UNL1       -0.2290
     13 C          61.8518   86.3282    8.7108 C.ar    1  UNL1        0.0015
     14 C          60.4839   86.2457    8.1008 C.ar    1  UNL1        0.0000
     15 C          60.2301   85.3158    6.9514 C.ar    1  UNL1        0.0000
     16 C          61.3443   84.4685    6.4122 C.ar    1  UNL1        0.0000
     17 C          62.7121   84.5511    7.0222 C.ar    1  UNL1        0.0000
     18 C          62.9659   85.4810    8.1716 C.ar    1  UNL1        0.0000
     19 N          65.3216   91.5886   15.4349 N.pl3   1  UNL1       -0.3257
     20 H          65.8854   91.7168   16.2317 H       1  UNL1        0.1472
     21 C          65.6216   92.3444   14.1743 C.ar    1  UNL1        0.0644
     22 C          65.0727   91.8645   12.8635 C.ar    1  UNL1        0.0175
     23 C          65.3727   92.6203   11.6031 C.ar    1  UNL1        0.0219
     24 C          66.2216   93.8559   11.6535 C.ar    1  UNL1        0.0987
     25 N          66.7704   94.3359   12.9643 N.ar    1  UNL1       -0.2410
     26 C          66.4704   93.5801   14.2248 C.ar    1  UNL1        0.1131
     27 C          66.5215   94.6117   10.3929 C.ar    1  UNL1        0.0971
     28 C          65.9197   95.9246    9.9877 C.ar    1  UNL1        0.0427
     29 C          66.5021   96.3116    8.6607 C.ar    1  UNL1        0.1217
     30 N          67.4640   95.2379    8.2458 N.ar    1  UNL1       -0.1676
     31 N          67.4760   94.1874    9.3164 N.ar    1  UNL1       -0.2473
     32 C          68.2980   92.9327    9.3113 C.3     1  UNL1        0.1538
@<TRIPOS>BOND
     1     2     1    1
     2     2    19    1
     3    19    21    1
     4    21    22   ar
     5    22    23   ar
     6    23    24   ar
     7    24    27    1
     8    27    28   ar
     9    28    29   ar
    10    29    30   ar
    11    30    31   ar
    12    31    32    1
    13    24    25   ar
    14    25    26   ar
    15     2     3    1
    16     3     4    2
    17     3     5   am
    18     5     7    1
    19     7     8   ar
    20     8     9   ar
    21     9    10   ar
    22    10    13    1
    23    13    14   ar
    24    14    15   ar
    25    15    16   ar
    26    16    17   ar
    27    17    18   ar
    28    10    11   ar
    29    11    12   ar
    30    26    21   ar
    31    12     7   ar
    32    31    27   ar
    33    18    13   ar
    34    19    20    1
    35     5     6    1
@<TRIPOS>MOLECULE
*****
 32 35 0 0 0
SMALL
GASTEIGER

@<TRIPOS>ATOM
      1 C          59.7653   90.9766   11.1947 C.3     1  UNL1        0.0311
      2 C          61.0164   90.2137   10.8740 C.3     1  UNL1        0.1470
      3 C          61.0753   88.7344   11.1147 C.2     1  UNL1        0.2450
      4 O          59.8180   87.9723   11.4121 O.2     1  UNL1       -0.2730
      5 N          62.3915   88.0170   11.0581 N.am    1  UNL1       -0.2680
      6 H          63.2167   88.5172   10.8629 H       1  UNL1        0.1563
      7 C          62.4503   86.5376   11.2988 C.ar    1  UNL1        0.1342
      8 C          62.2856   85.5841   10.1526 C.ar    1  UNL1        0.0345
      9 C          62.3444   84.1047   10.3933 C.ar    1  UNL1        0.0044
     10 C          62.5679   83.5788   11.7802 C.ar    1  UNL1        0.0193
     11 C          62.7326   84.5323   12.9264 C.ar    1  UNL1        0.1003
     12 N          62.6738   86.0117   12.6857 N.ar    1  UNL1       -0.2290
     13 C          62.6267   82.0995   12.0209 C.ar    1  UNL1        0.0015
     14 C          62.3448   81.5502   13.3881 C.ar    1  UNL1        0.0000
     15 C          62.4037   80.0709   13.6288 C.ar    1  UNL1        0.0000
     16 C          62.7443   79.1407   12.5023 C.ar    1  UNL1        0.0000
     17 C          63.0262   79.6899   11.1353 C.ar    1  UNL1        0.0000
     18 C          62.9674   81.1693   10.8946 C.ar    1  UNL1        0.0000
     19 N          62.2087   90.9303   10.3127 N.pl3   1  UNL1       -0.3257
     20 H          62.2504   91.1381    9.3513 H       1  UNL1        0.1472
     21 C          63.3374   91.3301   11.2162 C.ar    1  UNL1        0.0644
     22 C          64.4971   92.1079   10.6684 C.ar    1  UNL1        0.0175
     23 C          65.6257   92.5077   11.5719 C.ar    1  UNL1        0.0219
     24 C          65.5947   92.1296   13.0231 C.ar    1  UNL1        0.0987
     25 N          64.4350   91.3518   13.5709 N.ar    1  UNL1       -0.2410
     26 C          63.3064   90.9521   12.6674 C.ar    1  UNL1        0.1131
     27 C          66.7234   92.5295   13.9266 C.ar    1  UNL1        0.0971
     28 C          66.5934   93.2651   15.2273 C.ar    1  UNL1        0.0427
     29 C          67.9698   93.4542   15.7926 C.ar    1  UNL1        0.1217
     30 N          68.9506   92.8353   14.8412 N.ar    1  UNL1       -0.1676
     31 N          68.1803   92.2638   13.6880 N.ar    1  UNL1       -0.2473
     32 C          68.7643   91.5517   12.5040 C.3     1  UNL1        0.1538
@<TRIPOS>BOND
     1     2     1    1
     2     2    19    1
     3    19    21    1
     4    21    22   ar
     5    22    23   ar
     6    23    24   ar
     7    24    27    1
     8    27    28   ar
     9    28    29   ar
    10    29    30   ar
    11    30    31   ar
    12    31    32    1
    13    24    25   ar
    14    25    26   ar
    15     2     3    1
    16     3     4    2
    17     3     5   am
    18     5     7    1
    19     7     8   ar
    20     8     9   ar
    21     9    10   ar
    22    10    13    1
    23    13    14   ar
    24    14    15   ar
    25    15    16   ar
    26    16    17   ar
    27    17    18   ar
    28    10    11   ar
    29    11    12   ar
    30    26    21   ar
    31    12     7   ar
    32    31    27   ar
    33    18    13   ar
    34    19    20    1
    35     5     6    1
@<TRIPOS>MOLECULE
*****
 32 35 0 0 0
SMALL
GASTEIGER

@<TRIPOS>ATOM
      1 C          59.7551   89.7295    9.5941 C.3     1  UNL1        0.0311
      2 C          61.1153   89.1034    9.6834 C.3     1  UNL1        0.1470
      3 C          62.2216   89.8131   10.4063 C.2     1  UNL1        0.2450
      4 O          63.0421   90.8463    9.6927 O.2     1  UNL1       -0.2730
      5 N          62.5073   89.4896   11.8429 N.am    1  UNL1       -0.2680
      6 H          61.9687   88.8115   12.3113 H       1  UNL1        0.1563
      7 C          63.6135   90.1993   12.5658 C.ar    1  UNL1        0.1342
      8 C          64.1383   89.6492   13.8590 C.ar    1  UNL1        0.0345
      9 C          65.2445   90.3589   14.5819 C.ar    1  UNL1        0.0044
     10 C          65.8260   91.6187   14.0116 C.ar    1  UNL1        0.0193
     11 C          65.3012   92.1686   12.7186 C.ar    1  UNL1        0.1003
     12 N          64.1949   91.4590   11.9957 N.ar    1  UNL1       -0.2290
     13 C          66.9322   92.3284   14.7345 C.ar    1  UNL1        0.0015
     14 C          67.0582   93.8197   14.6338 C.ar    1  UNL1        0.0000
     15 C          68.1644   94.5294   15.3567 C.ar    1  UNL1        0.0000
     16 C          69.1446   93.7477   16.1804 C.ar    1  UNL1        0.0000
     17 C          69.0186   92.2565   16.2810 C.ar    1  UNL1        0.0000
     18 C          67.9124   91.5468   15.5581 C.ar    1  UNL1        0.0000
     19 N          61.3693   87.7678    9.0498 N.pl3   1  UNL1       -0.3257
     20 H          61.2687   87.6575    8.0767 H       1  UNL1        0.1472
     21 C          61.7765   86.6001    9.8989 C.ar    1  UNL1        0.0644
     22 C          62.6480   85.5229    9.3244 C.ar    1  UNL1        0.0175
     23 C          63.0553   84.3554   10.1735 C.ar    1  UNL1        0.0219
     24 C          62.5910   84.2650   11.5970 C.ar    1  UNL1        0.0987
     25 N          61.7194   85.3422   12.1714 N.ar    1  UNL1       -0.2410
     26 C          61.3122   86.5098   11.3223 C.ar    1  UNL1        0.1131
     27 C          62.9982   83.0974   12.4460 C.ar    1  UNL1        0.0971
     28 C          62.6556   81.6595   12.1907 C.ar    1  UNL1        0.0427
     29 C          63.2651   80.8361   13.2862 C.ar    1  UNL1        0.1217
     30 N          63.9846   81.7651   14.2187 N.ar    1  UNL1       -0.1676
     31 N          63.8196   83.1626   13.6994 N.ar    1  UNL1       -0.2473
     32 C          64.3780   84.4068   14.3239 C.3     1  UNL1        0.1538
@<TRIPOS>BOND
     1     2     1    1
     2     2    19    1
     3    19    21    1
     4    21    22   ar
     5    22    23   ar
     6    23    24   ar
     7    24    27    1
     8    27    28   ar
     9    28    29   ar
    10    29    30   ar
    11    30    31   ar
    12    31    32    1
    13    24    25   ar
    14    25    26   ar
    15     2     3    1
    16     3     4    2
    17     3     5   am
    18     5     7    1
    19     7     8   ar
    20     8     9   ar
    21     9    10   ar
    22    10    13    1
    23    13    14   ar
    24    14    15   ar
    25    15    16   ar
    26    16    17   ar
    27    17    18   ar
    28    10    11   ar
    29    11    12   ar
    30    26    21   ar
    31    12     7   ar
    32    31    27   ar
    33    18    13   ar
    34    19    20    1
    35     5     6    1
@<TRIPOS>MOLECULE
*****
 32 35 0 0 0
SMALL
GASTEIGER

@<TRIPOS>ATOM
      1 C          59.1841   89.6980    7.3305 C.3     1  UNL1        0.0311
      2 C          60.0254   88.8572    8.2446 C.3     1  UNL1        0.1470
      3 C          60.7911   89.5008    9.3624 C.2     1  UNL1        0.2450
      4 O          60.0947   90.4324   10.3095 O.2     1  UNL1       -0.2730
      5 N          62.2533   89.2126    9.5331 N.am    1  UNL1       -0.2680
      6 H          62.7104   88.6011    8.9114 H       1  UNL1        0.1563
      7 C          63.0190   89.8561   10.6509 C.ar    1  UNL1        0.1342
      8 C          63.1474   89.1570   11.9718 C.ar    1  UNL1        0.0345
      9 C          63.9132   89.8005   13.0897 C.ar    1  UNL1        0.0044
     10 C          64.5505   91.1431   12.8865 C.ar    1  UNL1        0.0193
     11 C          64.4221   91.8422   11.5656 C.ar    1  UNL1        0.1003
     12 N          63.6564   91.1987   10.4478 N.ar    1  UNL1       -0.2290
     13 C          65.3163   91.7866   14.0044 C.ar    1  UNL1        0.0015
     14 C          66.5470   92.5903   13.7050 C.ar    1  UNL1        0.0000
     15 C          67.3128   93.2338   14.8229 C.ar    1  UNL1        0.0000
     16 C          66.8478   93.0737   16.2400 C.ar    1  UNL1        0.0000
     17 C          65.6171   92.2701   16.5392 C.ar    1  UNL1        0.0000
     18 C          64.8513   91.6266   15.4214 C.ar    1  UNL1        0.0000
     19 N          60.1009   87.3731    8.0408 N.pl3   1  UNL1       -0.3257
     20 H          59.6100   86.9526    7.2982 H       1  UNL1        0.1472
     21 C          60.9244   86.5296    8.9685 C.ar    1  UNL1        0.0644
     22 C          62.0657   85.7185    8.4306 C.ar    1  UNL1        0.0175
     23 C          62.8891   84.8751    9.3582 C.ar    1  UNL1        0.0219
     24 C          62.5712   84.8428   10.8238 C.ar    1  UNL1        0.0987
     25 N          61.4299   85.6539   11.3617 N.ar    1  UNL1       -0.2410
     26 C          60.6064   86.4973   10.4340 C.ar    1  UNL1        0.1131
     27 C          63.3947   83.9993   11.7514 C.ar    1  UNL1        0.0971
     28 C          63.7995   82.5734   11.5212 C.ar    1  UNL1        0.0427
     29 C          64.6129   82.1264   12.6996 C.ar    1  UNL1        0.1217
     30 N          64.7108   83.2761   13.6581 N.ar    1  UNL1       -0.1676
     31 N          63.9580   84.4336   13.0720 N.ar    1  UNL1       -0.2473
     32 C          63.7966   85.7876   13.6970 C.3     1  UNL1        0.1538
@<TRIPOS>BOND
     1     2     1    1
     2     2    19    1
     3    19    21    1
     4    21    22   ar
     5    22    23   ar
     6    23    24   ar
     7    24    27    1
     8    27    28   ar
     9    28    29   ar
    10    29    30   ar
    11    30    31   ar
    12    31    32    1
    13    24    25   ar
    14    25    26   ar
    15     2     3    1
    16     3     4    2
    17     3     5   am
    18     5     7    1
    19     7     8   ar
    20     8     9   ar
    21     9    10   ar
    22    10    13    1
    23    13    14   ar
    24    14    15   ar
    25    15    16   ar
    26    16    17   ar
    27    17    18   ar
    28    10    11   ar
    29    11    12   ar
    30    26    21   ar
    31    12     7   ar
    32    31    27   ar
    33    18    13   ar
    34    19    20    1
    35     5     6    1
@<TRIPOS>MOLECULE
*****
 32 35 0 0 0
SMALL
GASTEIGER

@<TRIPOS>ATOM
      1 C          64.0399   90.5661   16.8409 C.3     1  UNL1        0.0311
      2 C          63.5402   90.1854   15.4787 C.3     1  UNL1        0.1470
      3 C          63.3913   88.7385   15.1119 C.2     1  UNL1        0.2450
      4 O          62.9668   87.7417   16.1492 O.2     1  UNL1       -0.2730
      5 N          63.6668   88.2886   13.7077 N.am    1  UNL1       -0.2680
      6 H          63.9454   88.9430   13.0269 H       1  UNL1        0.1563
      7 C          63.5179   86.8418   13.3408 C.ar    1  UNL1        0.1342
      8 C          64.2595   85.7919   14.1140 C.ar    1  UNL1        0.0345
      9 C          64.1105   84.3451   13.7472 C.ar    1  UNL1        0.0044
     10 C          63.2200   83.9482   12.6072 C.ar    1  UNL1        0.0193
     11 C          62.4785   84.9982   11.8341 C.ar    1  UNL1        0.1003
     12 N          62.6274   86.4450   12.2009 N.ar    1  UNL1       -0.2290
     13 C          63.0711   82.5014   12.2403 C.ar    1  UNL1        0.0015
     14 C          62.6505   81.5039   13.2787 C.ar    1  UNL1        0.0000
     15 C          62.5016   80.0571   12.9118 C.ar    1  UNL1        0.0000
     16 C          62.7732   79.6078   11.5066 C.ar    1  UNL1        0.0000
     17 C          63.1937   80.6054   10.4684 C.ar    1  UNL1        0.0000
     18 C          63.3426   82.0522   10.8352 C.ar    1  UNL1        0.0000
     19 N          63.1895   91.2514   14.4835 N.pl3   1  UNL1       -0.3257
     20 H          62.3140   91.6993   14.5299 H       1  UNL1        0.1472
     21 C          64.1726   91.6350   13.4175 C.ar    1  UNL1        0.0644
     22 C          63.7557   91.6321   11.9766 C.ar    1  UNL1        0.0175
     23 C          64.7389   92.0156   10.9107 C.ar    1  UNL1        0.0219
     24 C          66.1389   92.4021   11.2856 C.ar    1  UNL1        0.0987
     25 N          66.5558   92.4049   12.7264 N.ar    1  UNL1       -0.2410
     26 C          65.5727   92.0214   13.7924 C.ar    1  UNL1        0.1131
     27 C          67.1220   92.7857   10.2195 C.ar    1  UNL1        0.0971
     28 C          68.1202   91.8729    9.5710 C.ar    1  UNL1        0.0427
     29 C          68.8947   92.6724    8.5656 C.ar    1  UNL1        0.1217
     30 N          68.3752   94.0793    8.5927 N.ar    1  UNL1       -0.1676
     31 N          67.2796   94.1493    9.6149 N.ar    1  UNL1       -0.2473
     32 C          66.4818   95.3688    9.9700 C.3     1  UNL1        0.1538
@<TRIPOS>BOND
     1     2     1    1
     2     2    19    1
     3    19    21    1
     4    21    22   ar
     5    22    23   ar
     6    23    24   ar
     7    24    27    1
     8    27    28   ar
     9    28    29   ar
    10    29    30   ar
    11    30    31   ar
    12    31    32    1
    13    24    25   ar
    14    25    26   ar
    15     2     3    1
    16     3     4    2
    17     3     5   am
    18     5     7    1
    19     7     8   ar
    20     8     9   ar
    21     9    10   ar
    22    10    13    1
    23    13    14   ar
    24    14    15   ar
    25    15    16   ar
    26    16    17   ar
    27    17    18   ar
    28    10    11   ar
    29    11    12   ar
    30    26    21   ar
    31    12     7   ar
    32    31    27   ar
    33    18    13   ar
    34    19    20    1
    35     5     6    1
@<TRIPOS>MOLECULE
*****
 32 35 0 0 0
SMALL
GASTEIGER

@<TRIPOS>ATOM
      1 C          64.7017   91.8526   16.6927 C.3     1  UNL1        0.0311
      2 C          65.2780   91.7046   15.3157 C.3     1  UNL1        0.1470
      3 C          64.6274   90.7849   14.3253 C.2     1  UNL1        0.2450
      4 O          64.8528   89.3048   14.4157 O.2     1  UNL1       -0.2730
      5 N          63.7513   91.3455   13.2444 N.am    1  UNL1       -0.2680
      6 H          63.6033   92.3170   13.1850 H       1  UNL1        0.1563
      7 C          63.1006   90.4259   12.2539 C.ar    1  UNL1        0.1342
      8 C          63.1709   90.7325   10.7872 C.ar    1  UNL1        0.0345
      9 C          62.5203   89.8128    9.7968 C.ar    1  UNL1        0.0044
     10 C          61.7994   88.5865   10.2731 C.ar    1  UNL1        0.0193
     11 C          61.7292   88.2800   11.7397 C.ar    1  UNL1        0.1003
     12 N          62.3799   89.1997   12.7301 N.ar    1  UNL1       -0.2290
     13 C          61.1488   87.6669    9.2827 C.ar    1  UNL1        0.0015
     14 C          61.9195   86.5137    8.7114 C.ar    1  UNL1        0.0000
     15 C          61.2688   85.5940    7.7210 C.ar    1  UNL1        0.0000
     16 C          59.8476   85.8276    7.3018 C.ar    1  UNL1        0.0000
     17 C          59.0771   86.9808    7.8731 C.ar    1  UNL1        0.0000
     18 C          59.7277   87.9004    8.8635 C.ar    1  UNL1        0.0000
     19 N          66.5048   92.4763   14.9291 N.pl3   1  UNL1       -0.3257
     20 H          67.2783   92.5080   15.5373 H       1  UNL1        0.1472
     21 C          66.5531   93.1996   13.6159 C.ar    1  UNL1        0.0644
     22 C          66.7596   92.4319   12.3440 C.ar    1  UNL1        0.0175
     23 C          66.8079   93.1552   11.0308 C.ar    1  UNL1        0.0219
     24 C          66.6497   94.6463   10.9896 C.ar    1  UNL1        0.0987
     25 N          66.4432   95.4140   12.2616 N.ar    1  UNL1       -0.2410
     26 C          66.3949   94.6907   13.5747 C.ar    1  UNL1        0.1131
     27 C          66.6980   95.3697    9.6764 C.ar    1  UNL1        0.0971
     28 C          67.7468   95.2044    8.6168 C.ar    1  UNL1        0.0427
     29 C          67.4031   96.1178    7.4778 C.ar    1  UNL1        0.1217
     30 N          66.1417   96.8476    7.8334 N.ar    1  UNL1       -0.1676
     31 N          65.7060   96.3852    9.1922 N.ar    1  UNL1       -0.2473
     32 C          64.4915   96.8558    9.9361 C.3     1  UNL1        0.1538
@<TRIPOS>BOND
     1     2     1    1
     2     2    19    1
     3    19    21    1
     4    21    22   ar
     5    22    23   ar
     6    23    24   ar
     7    24    27    1
     8    27    28   ar
     9    28    29   ar
    10    29    30   ar
    11    30    31   ar
    12    31    32    1
    13    24    25   ar
    14    25    26   ar
    15     2     3    1
    16     3     4    2
    17     3     5   am
    18     5     7    1
    19     7     8   ar
    20     8     9   ar
    21     9    10   ar
    22    10    13    1
    23    13    14   ar
    24    14    15   ar
    25    15    16   ar
    26    16    17   ar
    27    17    18   ar
    28    10    11   ar
    29    11    12   ar
    30    26    21   ar
    31    12     7   ar
    32    31    27   ar
    33    18    13   ar
    34    19    20    1
    35     5     6    1
@<TRIPOS>MOLECULE
*****
 32 35 0 0 0
SMALL
GASTEIGER

@<TRIPOS>ATOM
      1 C          63.6165   82.9392   10.6290 C.3     1  UNL1        0.0311
      2 C          63.0368   84.2401   11.1000 C.3     1  UNL1        0.1470
      3 C          62.5207   85.2356   10.1037 C.2     1  UNL1        0.2450
      4 O          63.3343   85.5721    8.8893 O.2     1  UNL1       -0.2730
      5 N          61.1909   85.8945   10.3219 N.am    1  UNL1       -0.2680
      6 H          60.6569   85.6736   11.1189 H       1  UNL1        0.1563
      7 C          60.6747   86.8900    9.3256 C.ar    1  UNL1        0.1342
      8 C          59.9720   86.4168    8.0877 C.ar    1  UNL1        0.0345
      9 C          59.4558   87.4123    7.0914 C.ar    1  UNL1        0.0044
     10 C          59.6425   88.8810    7.3330 C.ar    1  UNL1        0.0193
     11 C          60.3452   89.3541    8.5709 C.ar    1  UNL1        0.1003
     12 N          60.8613   88.3586    9.5671 N.ar    1  UNL1       -0.2290
     13 C          59.1263   89.8765    6.3368 C.ar    1  UNL1        0.0015
     14 C          60.0880   90.6843    5.5165 C.ar    1  UNL1        0.0000
     15 C          59.5718   91.6798    4.5203 C.ar    1  UNL1        0.0000
     16 C          58.0940   91.8675    4.3442 C.ar    1  UNL1        0.0000
     17 C          57.1324   91.0597    5.1644 C.ar    1  UNL1        0.0000
     18 C          57.6486   90.0642    6.1607 C.ar    1  UNL1        0.0000
     19 N          62.9733   84.5454   12.5672 N.pl3   1  UNL1       -0.3257
     20 H          62.6677   83.8564   13.2006 H       1  UNL1        0.1472
     21 C          63.3753   85.9005   13.0694 C.ar    1  UNL1        0.0644
     22 C          64.1639   86.0261   14.3391 C.ar    1  UNL1        0.0175
     23 C          64.5659   87.3812   14.8413 C.ar    1  UNL1        0.0219
     24 C          64.1793   88.6106   14.0737 C.ar    1  UNL1        0.0987
     25 N          63.3907   88.4849   12.8040 N.ar    1  UNL1       -0.2410
     26 C          62.9887   87.1298   12.3018 C.ar    1  UNL1        0.1131
     27 C          64.5813   89.9657   14.5759 C.ar    1  UNL1        0.0971
     28 C          65.5698   90.8888   13.9272 C.ar    1  UNL1        0.0427
     29 C          65.6649   92.1292   14.7653 C.ar    1  UNL1        0.1217
     30 N          64.7351   91.9726   15.9321 N.ar    1  UNL1       -0.1676
     31 N          64.0655   90.6355   15.8150 N.ar    1  UNL1       -0.2473
     32 C          63.0570   90.0679   16.7694 C.3     1  UNL1        0.1538
@<TRIPOS>BOND
     1     2     1    1
     2     2    19    1
     3    19    21    1
     4    21    22   ar
     5    22    23   ar
     6    23    24   ar
     7    24    27    1
     8    27    28   ar
     9    28    29   ar
    10    29    30   ar
    11    30    31   ar
    12    31    32    1
    13    24    25   ar
    14    25    26   ar
    15     2     3    1
    16     3     4    2
    17     3     5   am
    18     5     7    1
    19     7     8   ar
    20     8     9   ar
    21     9    10   ar
    22    10    13    1
    23    13    14   ar
    24    14    15   ar
    25    15    16   ar
    26    16    17   ar
    27    17    18   ar
    28    10    11   ar
    29    11    12   ar
    30    26    21   ar
    31    12     7   ar
    32    31    27   ar
    33    18    13   ar
    34    19    20    1
    35     5     6    1
@<TRIPOS>MOLECULE
*****
 32 35 0 0 0
SMALL
GASTEIGER

@<TRIPOS>ATOM
      1 C          64.6066   89.2818   15.2958 C.3     1  UNL1        0.0311
      2 C          63.7559   89.1471   14.0677 C.3     1  UNL1        0.1470
      3 C          63.5375   87.7973   13.4509 C.2     1  UNL1        0.2450
      4 O          62.9541   87.6876   12.0734 O.2     1  UNL1       -0.2730
      5 N          63.9026   86.5571   14.2118 N.am    1  UNL1       -0.2680
      6 H          64.2855   86.6291   15.1159 H       1  UNL1        0.1563
      7 C          63.6842   85.2073   13.5951 C.ar    1  UNL1        0.1342
      8 C          63.0297   85.0943   12.2501 C.ar    1  UNL1        0.0345
      9 C          62.8113   83.7445   11.6334 C.ar    1  UNL1        0.0044
     10 C          63.2474   82.5077   12.3616 C.ar    1  UNL1        0.0193
     11 C          63.9019   82.6208   13.7065 C.ar    1  UNL1        0.1003
     12 N          64.1203   83.9706   14.3233 N.ar    1  UNL1       -0.2290
     13 C          63.0291   81.1579   11.7449 C.ar    1  UNL1        0.0015
     14 C          63.1710   80.9789   10.2624 C.ar    1  UNL1        0.0000
     15 C          62.9526   79.6291    9.6456 C.ar    1  UNL1        0.0000
     16 C          62.5923   78.4583   10.5115 C.ar    1  UNL1        0.0000
     17 C          62.4504   78.6374   11.9939 C.ar    1  UNL1        0.0000
     18 C          62.6687   79.9872   12.6107 C.ar    1  UNL1        0.0000
     19 N          63.1236   90.3622   13.4563 N.pl3   1  UNL1       -0.3257
     20 H          62.1686   90.5483   13.6064 H       1  UNL1        0.1472
     21 C          63.9463   91.2936   12.6163 C.ar    1  UNL1        0.0644
     22 C          63.6901   91.3983   11.1421 C.ar    1  UNL1        0.0175
     23 C          64.5128   92.3297   10.3022 C.ar    1  UNL1        0.0219
     24 C          65.5918   93.1564   10.9365 C.ar    1  UNL1        0.0987
     25 N          65.8481   93.0517   12.4107 N.ar    1  UNL1       -0.2410
     26 C          65.0253   92.1203   13.2506 C.ar    1  UNL1        0.1131
     27 C          66.4146   94.0879   10.0964 C.ar    1  UNL1        0.0971
     28 C          66.1354   95.5429    9.8619 C.ar    1  UNL1        0.0427
     29 C          67.2092   96.0821    8.9640 C.ar    1  UNL1        0.1217
     30 N          68.1521   94.9603    8.6437 N.ar    1  UNL1       -0.1676
     31 N          67.6610   93.7278    9.3435 N.ar    1  UNL1       -0.2473
     32 C          68.3035   92.3732    9.2984 C.3     1  UNL1        0.1538
@<TRIPOS>BOND
     1     2     1    1
     2     2    19    1
     3    19    21    1
     4    21    22   ar
     5    22    23   ar
     6    23    24   ar
     7    24    27    1
     8    27    28   ar
     9    28    29   ar
    10    29    30   ar
    11    30    31   ar
    12    31    32    1
    13    24    25   ar
    14    25    26   ar
    15     2     3    1
    16     3     4    2
    17     3     5   am
    18     5     7    1
    19     7     8   ar
    20     8     9   ar
    21     9    10   ar
    22    10    13    1
    23    13    14   ar
    24    14    15   ar
    25    15    16   ar
    26    16    17   ar
    27    17    18   ar
    28    10    11   ar
    29    11    12   ar
    30    26    21   ar
    31    12     7   ar
    32    31    27   ar
    33    18    13   ar
    34    19    20    1
    35     5     6    1
