@<TRIPOS>MOLECULE
*****
 41 45 0 0 0
SMALL
GASTEIGER

@<TRIPOS>ATOM
      1 N          64.1983   90.5332   13.2195 N.am    1  UNL1       -0.2770
      2 C          63.0311   90.0005   12.4424 C.2     1  UNL1        0.2253
      3 O          62.1000   89.0082   13.0735 O.2     1  UNL1       -0.2749
      4 C          62.7951   90.4601   11.0342 C.3     1  UNL1        0.0750
      5 C          62.1590   90.5908    9.6821 C.3     1  UNL1        0.0095
      6 C          63.7262   91.4524   10.4031 C.3     1  UNL1        0.0153
      7 C          64.8934   91.9851   11.1802 C.3     1  UNL1        0.0452
      8 C          65.1294   91.5256   12.5884 C.3     1  UNL1        0.1018
      9 C          65.8245   92.9775   10.5491 C.ar    1  UNL1       -0.0197
     10 C          67.1552   92.5278   10.0227 C.ar    1  UNL1       -0.0042
     11 C          68.0863   93.5201    9.3916 C.ar    1  UNL1        0.0005
     12 C          67.6868   94.9621    9.2869 C.ar    1  UNL1        0.0114
     13 C          66.3561   95.4118    9.8132 C.ar    1  UNL1        0.0574
     14 CL         65.9565   96.8538    9.7085 Cl      1  UNL1       -0.0823
     15 C          65.4250   94.4194   10.4443 C.ar    1  UNL1        0.0072
     16 C          66.2966   92.0583   13.3655 C.ar    1  UNL1       -0.0039
     17 C          67.5883   91.2963   13.3955 C.ar    1  UNL1       -0.0018
     18 C          68.7555   91.8290   14.1726 C.ar    1  UNL1        0.0111
     19 C          68.6310   93.1237   14.9198 C.ar    1  UNL1        0.0577
     20 CL         69.7982   93.6564   15.6969 Cl      1  UNL1       -0.0822
     21 C          67.3393   93.8857   14.8898 C.ar    1  UNL1        0.0111
     22 C          66.1721   93.3530   14.1127 C.ar    1  UNL1       -0.0018
     23 C          64.4344   90.0736   14.6278 C.3     1  UNL1        0.0991
     24 C          64.1362   90.9914   15.7761 C.3     1  UNL1        0.0200
     25 C          63.1710   91.5365   16.7867 C.3     1  UNL1        0.0018
     26 C          64.5850   92.0360   16.7545 C.3     1  UNL1        0.0018
     27 C          64.9686   88.6963   14.8876 C.3     1  UNL1        0.1703
     28 S          64.1124   87.6782   15.5809 S.O2    1  UNL1       -0.0115
     29 O          64.9292   86.5770   14.9725 O.2     1  UNL1       -0.1730
     30 O          63.2957   88.7794   16.1892 O.2     1  UNL1       -0.1730
     31 C          63.7220   85.6110   15.3086 C.3     1  UNL1        0.0236
     32 C          63.2563   86.6602   16.2742 C.3     1  UNL1        0.1108
     33 C          62.7906   87.7094   17.2397 C.3     1  UNL1        0.0236
     34 C          62.4002   85.6422   16.9674 C.3     1  UNL1        0.0236
     35 C          61.6430   89.5132   11.1957 C.3     1  UNL1        0.0544
     36 C          61.4010   88.4448   10.1711 C.ar    1  UNL1        0.0595
     37 C          62.3973   87.3378    9.9920 C.ar    1  UNL1        0.0148
     38 C          62.1553   86.2694    8.9674 C.ar    1  UNL1        0.0028
     39 C          60.9169   86.3079    8.1218 C.ar    1  UNL1        0.0207
     40 C          59.9206   87.4148    8.3009 C.ar    1  UNL1        0.0984
     41 N          60.1626   88.4833    9.3255 N.ar    1  UNL1       -0.2481
@<TRIPOS>BOND
     1    31    32    1
     2    32    33    1
     3    32    34    1
     4    32    28    1
     5    28    29    2
     6    28    30    2
     7    28    27    1
     8    23    27    1
     9    23    24    1
    10    24    25    1
    11    25    26    1
    12    23     1    1
    13     1     2   am
    14     2     3    2
    15     2     4    1
    16     4     5    1
    17     4    35    1
    18    35    36    1
    19    36    37   ar
    20    37    38   ar
    21    38    39   ar
    22    39    40   ar
    23    40    41   ar
    24     4     6    1
    25     6     7    1
    26     7     9    1
    27     9    10   ar
    28    10    11   ar
    29    11    12   ar
    30    12    13   ar
    31    13    14    1
    32    13    15   ar
    33     7     8    1
    34     8    16    1
    35    16    17   ar
    36    17    18   ar
    37    18    19   ar
    38    19    20    1
    39    19    21   ar
    40    21    22   ar
    41    26    24    1
    42     8     1    1
    43    22    16   ar
    44    41    36   ar
    45    15     9   ar
