@<TRIPOS>MOLECULE
*****
 36 40 0 0 0
SMALL
GASTEIGER

@<TRIPOS>ATOM
      1 C          59.8059   91.1231    5.1469 C.ar    1  UNL1       -0.0025
      2 C          61.2366   90.7727    4.8638 C.ar    1  UNL1       -0.0014
      3 C          61.9438   91.3933    3.6955 C.ar    1  UNL1        0.0142
      4 C          61.2201   92.3642    2.8103 C.ar    1  UNL1        0.0478
      5 C          59.7894   92.7146    3.0934 C.ar    1  UNL1        0.0142
      6 C          59.0823   92.0940    4.2616 C.ar    1  UNL1       -0.0014
      7 N          61.9273   92.9848    1.6420 N.pl3   1  UNL1       -0.3075
      8 C          63.2144   93.7259    1.8518 C.3     1  UNL1        0.0911
      9 C          63.9215   94.3465    0.6836 C.3     1  UNL1        0.0258
     10 C          63.3415   94.2259   -0.6945 C.3     1  UNL1        0.0257
     11 C          62.0544   93.4848   -0.9043 C.3     1  UNL1        0.0258
     12 C          61.3473   92.8642    0.2639 C.3     1  UNL1        0.0911
     13 C          64.0487   94.8465   -1.8628 C.ar    1  UNL1       -0.0223
     14 C          64.8421   96.1057   -1.6767 C.ar    1  UNL1       -0.0034
     15 C          65.5493   96.7263   -2.8449 C.ar    1  UNL1        0.0111
     16 C          65.4629   96.0876   -4.1994 C.ar    1  UNL1        0.0577
     17 CL         66.1701   96.7081   -5.3677 Cl      1  UNL1       -0.0822
     18 C          64.6695   94.8283   -4.3855 C.ar    1  UNL1        0.0111
     19 C          63.9623   94.2078   -3.2173 C.ar    1  UNL1       -0.0034
     20 C          59.0988   90.5025    6.3151 C.3     1  UNL1        0.1166
     21 C          59.4021   88.5054    7.9490 C.2     1  UNL1        0.2635
     22 O          58.1294   87.8959    7.4401 O.2     1  UNL1       -0.2685
     23 N          59.8867   89.8086    7.3865 N.am    1  UNL1       -0.2957
     24 H          60.7220   90.2087    7.7204 H       1  UNL1        0.1501
     25 C          60.1512   88.1253   10.4866 C.ar    1  UNL1        0.0811
     26 N          61.0922   87.1897   11.1858 N.ar    1  UNL1       -0.2306
     27 C          61.7127   86.2977   10.1518 C.ar    1  UNL1        0.1475
     28 C          62.7134   85.1852   10.2560 C.ar    1  UNL1        0.0383
     29 C          63.1564   84.4570    9.0218 C.ar    1  UNL1        0.0160
     30 C          62.5988   84.8412    7.6833 C.ar    1  UNL1        0.0753
     31 CL         63.0419   84.1129    6.4491 Cl      1  UNL1       -0.0807
     32 C          61.5981   85.9537    7.5791 C.ar    1  UNL1        0.0929
     33 N          61.1551   86.6820    8.8133 N.ar    1  UNL1       -0.2845
     34 C          60.1900   87.8115    9.0203 C.ar    1  UNL1        0.1326
     35 C          59.8131   90.6029   11.1919 C.3     1  UNL1        0.0067
     36 C          59.3176   89.1881   11.1390 C.3     1  UNL1        0.0475
@<TRIPOS>BOND
     1    35    36    1
     2    36    25    1
     3    25    26   ar
     4    26    27   ar
     5    27    28   ar
     6    28    29   ar
     7    29    30   ar
     8    30    31    1
     9    30    32   ar
    10    32    33   ar
    11    33    34   ar
    12    34    21    1
    13    21    22    2
    14    21    23   am
    15    23    20    1
    16    20     1    1
    17     1     2   ar
    18     2     3   ar
    19     3     4   ar
    20     4     7    1
    21     7     8    1
    22     8     9    1
    23     9    10    1
    24    10    13    1
    25    13    14   ar
    26    14    15   ar
    27    15    16   ar
    28    16    17    1
    29    16    18   ar
    30    18    19   ar
    31    10    11    1
    32    11    12    1
    33     4     5   ar
    34     5     6   ar
    35    34    25   ar
    36     6     1   ar
    37    33    27   ar
    38    12     7    1
    39    19    13   ar
    40    23    24    1
@<TRIPOS>MOLECULE
*****
 36 40 0 0 0
SMALL
GASTEIGER

@<TRIPOS>ATOM
      1 C          60.0801   91.3241    4.8329 C.ar    1  UNL1       -0.0025
      2 C          61.5178   91.0394    4.5139 C.ar    1  UNL1       -0.0014
      3 C          62.1532   91.6540    3.3021 C.ar    1  UNL1        0.0142
      4 C          61.3509   92.5535    2.4092 C.ar    1  UNL1        0.0478
      5 C          59.9132   92.8382    2.7282 C.ar    1  UNL1        0.0142
      6 C          59.2778   92.2236    3.9400 C.ar    1  UNL1       -0.0014
      7 N          61.9863   93.1681    1.1974 N.pl3   1  UNL1       -0.3075
      8 C          63.4799   93.1845    1.0606 C.3     1  UNL1        0.0911
      9 C          64.1153   93.7991   -0.1512 C.3     1  UNL1        0.0258
     10 C          63.2571   94.3974   -1.2262 C.3     1  UNL1        0.0257
     11 C          61.7634   94.3810   -1.0893 C.3     1  UNL1        0.0258
     12 C          61.1280   93.7663    0.1225 C.3     1  UNL1        0.0911
     13 C          63.8924   95.0120   -2.4380 C.ar    1  UNL1       -0.0223
     14 C          65.0210   95.9874   -2.2800 C.ar    1  UNL1       -0.0034
     15 C          65.6564   96.6020   -3.4918 C.ar    1  UNL1        0.0111
     16 C          65.1632   96.2412   -4.8617 C.ar    1  UNL1        0.0577
     17 CL         65.7986   96.8559   -6.0735 Cl      1  UNL1       -0.0822
     18 C          64.0347   95.2659   -5.0197 C.ar    1  UNL1        0.0111
     19 C          63.3993   94.6512   -3.8079 C.ar    1  UNL1       -0.0034
     20 C          59.4447   90.7095    6.0447 C.3     1  UNL1        0.1166
     21 C          59.7064   88.6341    7.5855 C.2     1  UNL1        0.2635
     22 O          58.3148   88.1978    7.2342 O.2     1  UNL1       -0.2685
     23 N          60.2713   89.8898    6.9907 N.am    1  UNL1       -0.2957
     24 H          61.1846   90.1761    7.2213 H       1  UNL1        0.1501
     25 C          60.7481   86.3318    8.4570 C.ar    1  UNL1        0.0811
     26 N          61.6376   85.9346    9.5976 N.ar    1  UNL1       -0.2306
     27 C          61.9722   87.1717   10.3771 C.ar    1  UNL1        0.1475
     28 C          62.8104   87.3904   11.6016 C.ar    1  UNL1        0.0383
     29 C          62.9658   88.7708   12.1673 C.ar    1  UNL1        0.0160
     30 C          62.2831   89.9326   11.5085 C.ar    1  UNL1        0.0753
     31 CL         62.4386   91.3132   12.0742 Cl      1  UNL1       -0.0807
     32 C          61.4450   89.7140   10.2839 C.ar    1  UNL1        0.0929
     33 N          61.2895   88.3335    9.7182 N.ar    1  UNL1       -0.2845
     34 C          60.5330   87.8144    8.5315 C.ar    1  UNL1        0.1326
     35 C          61.0873   84.6453    6.5100 C.3     1  UNL1        0.0067
     36 C          60.1744   85.4085    7.4233 C.3     1  UNL1        0.0475
@<TRIPOS>BOND
     1    35    36    1
     2    36    25    1
     3    25    26   ar
     4    26    27   ar
     5    27    28   ar
     6    28    29   ar
     7    29    30   ar
     8    30    31    1
     9    30    32   ar
    10    32    33   ar
    11    33    34   ar
    12    34    21    1
    13    21    22    2
    14    21    23   am
    15    23    20    1
    16    20     1    1
    17     1     2   ar
    18     2     3   ar
    19     3     4   ar
    20     4     7    1
    21     7     8    1
    22     8     9    1
    23     9    10    1
    24    10    13    1
    25    13    14   ar
    26    14    15   ar
    27    15    16   ar
    28    16    17    1
    29    16    18   ar
    30    18    19   ar
    31    10    11    1
    32    11    12    1
    33     4     5   ar
    34     5     6   ar
    35    34    25   ar
    36     6     1   ar
    37    33    27   ar
    38    12     7    1
    39    19    13   ar
    40    23    24    1
@<TRIPOS>MOLECULE
*****
 36 40 0 0 0
SMALL
GASTEIGER

@<TRIPOS>ATOM
      1 C          72.1455   77.0132   13.9268 C.ar    1  UNL1       -0.0025
      2 C          73.3482   77.8527   13.6129 C.ar    1  UNL1       -0.0014
      3 C          73.4712   78.5156   12.2730 C.ar    1  UNL1        0.0142
      4 C          72.3914   78.3390   11.2469 C.ar    1  UNL1        0.0478
      5 C          71.1887   77.4994   11.5608 C.ar    1  UNL1        0.0142
      6 C          71.0657   76.8366   12.9007 C.ar    1  UNL1       -0.0014
      7 N          72.5144   79.0018    9.9069 N.pl3   1  UNL1       -0.3075
      8 C          71.6424   80.1741    9.5672 C.3     1  UNL1        0.0911
      9 C          71.7653   80.8369    8.2273 C.3     1  UNL1        0.0258
     10 C          72.7604   80.3276    7.2270 C.3     1  UNL1        0.0257
     11 C          73.6324   79.1553    7.5667 C.3     1  UNL1        0.0258
     12 C          73.5094   78.4925    8.9067 C.3     1  UNL1        0.0911
     13 C          72.8833   80.9904    5.8871 C.ar    1  UNL1       -0.0223
     14 C          73.5097   80.2537    4.7405 C.ar    1  UNL1       -0.0034
     15 C          73.6327   80.9166    3.4005 C.ar    1  UNL1        0.0111
     16 C          73.1293   82.3163    3.2072 C.ar    1  UNL1        0.0577
     17 CL         73.2523   82.9792    1.8672 Cl      1  UNL1       -0.0822
     18 C          72.5029   83.0530    4.3538 C.ar    1  UNL1        0.0111
     19 C          72.3799   82.3902    5.6937 C.ar    1  UNL1       -0.0034
     20 C          72.0225   76.3503   15.2668 C.3     1  UNL1        0.1166
     21 C          70.8997   74.0229   15.5357 C.2     1  UNL1        0.2635
     22 O          69.5513   74.6787   15.5805 O.2     1  UNL1       -0.2685
     23 N          72.1352   74.8588   15.3788 N.am    1  UNL1       -0.2957
     24 H          73.0202   74.4284   15.3494 H       1  UNL1        0.1501
     25 C          71.4611   71.7696   16.8595 C.ar    1  UNL1        0.0811
     26 N          71.4221   70.3072   16.5283 N.ar    1  UNL1       -0.2306
     27 C          70.9493   70.1651   15.1119 C.ar    1  UNL1        0.1475
     28 C          70.7167   68.9615   14.2474 C.ar    1  UNL1        0.0383
     29 C          70.2308   69.1327   12.8387 C.ar    1  UNL1        0.0160
     30 C          69.9775   70.5073   12.2944 C.ar    1  UNL1        0.0753
     31 CL         69.4916   70.6784   10.8856 Cl      1  UNL1       -0.0807
     32 C          70.2102   71.7108   13.1589 C.ar    1  UNL1        0.0929
     33 N          70.6960   71.5397   14.5676 N.ar    1  UNL1       -0.2845
     34 C          71.0123   72.5314   15.6477 C.ar    1  UNL1        0.1326
     35 C          70.8374   72.8852   19.1214 C.3     1  UNL1        0.0067
     36 C          71.8759   72.3657   18.1720 C.3     1  UNL1        0.0475
@<TRIPOS>BOND
     1    35    36    1
     2    36    25    1
     3    25    26   ar
     4    26    27   ar
     5    27    28   ar
     6    28    29   ar
     7    29    30   ar
     8    30    31    1
     9    30    32   ar
    10    32    33   ar
    11    33    34   ar
    12    34    21    1
    13    21    22    2
    14    21    23   am
    15    23    20    1
    16    20     1    1
    17     1     2   ar
    18     2     3   ar
    19     3     4   ar
    20     4     7    1
    21     7     8    1
    22     8     9    1
    23     9    10    1
    24    10    13    1
    25    13    14   ar
    26    14    15   ar
    27    15    16   ar
    28    16    17    1
    29    16    18   ar
    30    18    19   ar
    31    10    11    1
    32    11    12    1
    33     4     5   ar
    34     5     6   ar
    35    34    25   ar
    36     6     1   ar
    37    33    27   ar
    38    12     7    1
    39    19    13   ar
    40    23    24    1
@<TRIPOS>MOLECULE
*****
 36 40 0 0 0
SMALL
GASTEIGER

@<TRIPOS>ATOM
      1 C          58.8304   91.2508    5.0540 C.ar    1  UNL1       -0.0025
      2 C          57.9068   90.4665    5.9382 C.ar    1  UNL1       -0.0014
      3 C          58.4682   89.5192    6.9568 C.ar    1  UNL1        0.0142
      4 C          59.9532   89.3561    7.0911 C.ar    1  UNL1        0.0478
      5 C          60.8768   90.1404    6.2069 C.ar    1  UNL1        0.0142
      6 C          60.3154   91.0877    5.1884 C.ar    1  UNL1       -0.0014
      7 N          60.5146   88.4088    8.1096 N.pl3   1  UNL1       -0.3075
      8 C          60.3570   86.9287    7.9244 C.3     1  UNL1        0.0911
      9 C          60.9184   85.9813    8.9429 C.3     1  UNL1        0.0258
     10 C          61.6374   86.5142   10.1467 C.3     1  UNL1        0.0257
     11 C          61.7950   87.9943   10.3320 C.3     1  UNL1        0.0258
     12 C          61.2336   88.9416    9.3135 C.3     1  UNL1        0.0911
     13 C          62.1988   85.5668   11.1652 C.ar    1  UNL1       -0.0223
     14 C          62.7568   86.0950   12.4535 C.ar    1  UNL1       -0.0034
     15 C          63.3182   85.1477   13.4720 C.ar    1  UNL1        0.0111
     16 C          63.3215   83.6721   13.2023 C.ar    1  UNL1        0.0577
     17 CL         63.8829   82.7248   14.2209 Cl      1  UNL1       -0.0822
     18 C          62.7634   83.1440   11.9141 C.ar    1  UNL1        0.0111
     19 C          62.2021   84.0913   10.8956 C.ar    1  UNL1       -0.0034
     20 C          58.2690   92.1981    4.0355 C.3     1  UNL1        0.1166
     21 C          59.7538   93.3116    2.2174 C.2     1  UNL1        0.2635
     22 O          60.1315   94.3917    3.1875 O.2     1  UNL1       -0.2685
     23 N          58.8226   92.2149    2.6415 N.am    1  UNL1       -0.2957
     24 H          58.5747   91.5060    2.0048 H       1  UNL1        0.1501
     25 C          61.7585   93.2593    0.4501 C.ar    1  UNL1        0.0811
     26 N          61.8549   93.3055   -1.0461 N.ar    1  UNL1       -0.2306
     27 C          60.4634   93.4031   -1.5975 C.ar    1  UNL1        0.1475
     28 C          59.9436   93.4809   -3.0024 C.ar    1  UNL1        0.0383
     29 C          58.4674   93.5730   -3.2519 C.ar    1  UNL1        0.0160
     30 C          57.5110   93.5871   -2.0964 C.ar    1  UNL1        0.0753
     31 CL         56.0347   93.6792   -2.3460 Cl      1  UNL1       -0.0807
     32 C          58.0307   93.5093   -0.6916 C.ar    1  UNL1        0.0929
     33 N          59.5069   93.4173   -0.4421 N.ar    1  UNL1       -0.2845
     34 C          60.3074   93.3284    0.8234 C.ar    1  UNL1        0.1326
     35 C          63.0242   91.9821    2.3254 C.3     1  UNL1        0.0067
     36 C          62.9109   93.1612    1.4053 C.3     1  UNL1        0.0475
@<TRIPOS>BOND
     1    35    36    1
     2    36    25    1
     3    25    26   ar
     4    26    27   ar
     5    27    28   ar
     6    28    29   ar
     7    29    30   ar
     8    30    31    1
     9    30    32   ar
    10    32    33   ar
    11    33    34   ar
    12    34    21    1
    13    21    22    2
    14    21    23   am
    15    23    20    1
    16    20     1    1
    17     1     2   ar
    18     2     3   ar
    19     3     4   ar
    20     4     7    1
    21     7     8    1
    22     8     9    1
    23     9    10    1
    24    10    13    1
    25    13    14   ar
    26    14    15   ar
    27    15    16   ar
    28    16    17    1
    29    16    18   ar
    30    18    19   ar
    31    10    11    1
    32    11    12    1
    33     4     5   ar
    34     5     6   ar
    35    34    25   ar
    36     6     1   ar
    37    33    27   ar
    38    12     7    1
    39    19    13   ar
    40    23    24    1
@<TRIPOS>MOLECULE
*****
 36 40 0 0 0
SMALL
GASTEIGER

@<TRIPOS>ATOM
      1 C          59.9035   87.5658    8.9398 C.ar    1  UNL1       -0.0025
      2 C          59.3508   87.1764    7.6008 C.ar    1  UNL1       -0.0014
      3 C          59.3236   88.1746    6.4815 C.ar    1  UNL1        0.0142
      4 C          59.8492   89.5623    6.7011 C.ar    1  UNL1        0.0478
      5 C          60.4018   89.9516    8.0401 C.ar    1  UNL1        0.0142
      6 C          60.4290   88.9535    9.1594 C.ar    1  UNL1       -0.0014
      7 N          59.8220   90.5604    5.5818 N.pl3   1  UNL1       -0.3075
      8 C          61.0882   90.9096    4.8575 C.3     1  UNL1        0.0911
      9 C          61.0611   91.9078    3.7381 C.3     1  UNL1        0.0258
     10 C          59.7677   92.5568    3.3432 C.3     1  UNL1        0.0257
     11 C          58.5015   92.2076    4.0675 C.3     1  UNL1        0.0258
     12 C          58.5286   91.2094    5.1868 C.3     1  UNL1        0.0911
     13 C          59.7405   93.5550    2.2238 C.ar    1  UNL1       -0.0223
     14 C          60.3153   94.9255    2.4270 C.ar    1  UNL1       -0.0034
     15 C          60.2881   95.9237    1.3076 C.ar    1  UNL1        0.0111
     16 C          59.6862   95.5513   -0.0149 C.ar    1  UNL1        0.0577
     17 CL         59.6590   96.5495   -1.1342 Cl      1  UNL1       -0.0822
     18 C          59.1115   94.1808   -0.2180 C.ar    1  UNL1        0.0111
     19 C          59.1386   93.1826    0.9013 C.ar    1  UNL1       -0.0034
     20 C          59.9306   86.5676   10.0591 C.3     1  UNL1        0.1166
     21 C          62.1353   86.1659   11.3735 C.2     1  UNL1        0.2635
     22 O          62.6256   85.2677   10.2766 O.2     1  UNL1       -0.2685
     23 N          60.7879   86.8158   11.2647 N.am    1  UNL1       -0.2957
     24 H          60.4662   87.4053   11.9846 H       1  UNL1        0.1501
     25 C          63.4939   85.3717   13.5342 C.ar    1  UNL1        0.0811
     26 N          64.3102   86.0616   14.5866 N.ar    1  UNL1       -0.2306
     27 C          64.3135   87.5304   14.2819 C.ar    1  UNL1        0.1475
     28 C          64.9528   88.6975   14.9740 C.ar    1  UNL1        0.0383
     29 C          64.7778   90.0825   14.4253 C.ar    1  UNL1        0.0160
     30 C          63.9635   90.3003   13.1845 C.ar    1  UNL1        0.0753
     31 CL         63.7884   91.6854   12.6358 Cl      1  UNL1       -0.0807
     32 C          63.3242   89.1332   12.4925 C.ar    1  UNL1        0.0929
     33 N          63.4992   87.7482   13.0412 N.ar    1  UNL1       -0.2845
     34 C          62.9927   86.4140   12.5791 C.ar    1  UNL1        0.1326
     35 C          64.1237   83.0173   12.6342 C.3     1  UNL1        0.0067
     36 C          63.2258   83.8982   13.4514 C.3     1  UNL1        0.0475
@<TRIPOS>BOND
     1    35    36    1
     2    36    25    1
     3    25    26   ar
     4    26    27   ar
     5    27    28   ar
     6    28    29   ar
     7    29    30   ar
     8    30    31    1
     9    30    32   ar
    10    32    33   ar
    11    33    34   ar
    12    34    21    1
    13    21    22    2
    14    21    23   am
    15    23    20    1
    16    20     1    1
    17     1     2   ar
    18     2     3   ar
    19     3     4   ar
    20     4     7    1
    21     7     8    1
    22     8     9    1
    23     9    10    1
    24    10    13    1
    25    13    14   ar
    26    14    15   ar
    27    15    16   ar
    28    16    17    1
    29    16    18   ar
    30    18    19   ar
    31    10    11    1
    32    11    12    1
    33     4     5   ar
    34     5     6   ar
    35    34    25   ar
    36     6     1   ar
    37    33    27   ar
    38    12     7    1
    39    19    13   ar
    40    23    24    1
@<TRIPOS>MOLECULE
*****
 36 40 0 0 0
SMALL
GASTEIGER

@<TRIPOS>ATOM
      1 C          59.6741   87.7921    8.8333 C.ar    1  UNL1       -0.0025
      2 C          60.1970   89.1792    9.0619 C.ar    1  UNL1       -0.0014
      3 C          60.2386   90.1613    7.9289 C.ar    1  UNL1        0.0142
      4 C          59.7573   89.7562    6.5672 C.ar    1  UNL1        0.0478
      5 C          59.2344   88.3691    6.3386 C.ar    1  UNL1        0.0142
      6 C          59.1928   87.3870    7.4716 C.ar    1  UNL1       -0.0014
      7 N          59.7989   90.7383    5.4341 N.pl3   1  UNL1       -0.3075
      8 C          61.0949   91.0206    4.7336 C.3     1  UNL1        0.0911
      9 C          61.1365   92.0027    3.6005 C.3     1  UNL1        0.0258
     10 C          59.8821   92.7024    3.1681 C.3     1  UNL1        0.0257
     11 C          58.5862   92.4201    3.8686 C.3     1  UNL1        0.0258
     12 C          58.5446   91.4380    5.0016 C.3     1  UNL1        0.0911
     13 C          59.9238   93.6845    2.0350 C.ar    1  UNL1       -0.0223
     14 C          59.3299   93.3221    0.7061 C.ar    1  UNL1       -0.0034
     15 C          59.3715   94.3042   -0.4269 C.ar    1  UNL1        0.0111
     16 C          60.0070   95.6488   -0.2311 C.ar    1  UNL1        0.0577
     17 CL         60.0486   96.6308   -1.3641 Cl      1  UNL1       -0.0822
     18 C          60.6009   96.0111    1.0978 C.ar    1  UNL1        0.0111
     19 C          60.5593   95.0291    2.2308 C.ar    1  UNL1       -0.0034
     20 C          59.6325   86.8100    9.9664 C.3     1  UNL1        0.1166
     21 C          61.9684   86.5939   11.0829 C.2     1  UNL1        0.2635
     22 O          62.5171   85.9992    9.8198 O.2     1  UNL1       -0.2685
     23 N          60.5261   86.9992   11.1561 N.am    1  UNL1       -0.2957
     24 H          60.1660   87.3895   11.9851 H       1  UNL1        0.1501
     25 C          63.3860   88.0930   12.7824 C.ar    1  UNL1        0.0811
     26 N          64.2364   87.8151   13.9864 N.ar    1  UNL1       -0.2306
     27 C          64.2380   86.3335   14.2208 C.ar    1  UNL1        0.1475
     28 C          64.9033   85.4828   15.2618 C.ar    1  UNL1        0.0383
     29 C          64.7191   83.9943   15.2437 C.ar    1  UNL1        0.0160
     30 C          63.8697   83.3565   14.1846 C.ar    1  UNL1        0.0753
     31 CL         63.6855   81.8679   14.1665 Cl      1  UNL1       -0.0807
     32 C          63.2045   84.2072   13.1436 C.ar    1  UNL1        0.0929
     33 N          63.3887   85.6957   13.1617 N.ar    1  UNL1       -0.2845
     34 C          62.8620   86.7832   12.2727 C.ar    1  UNL1        0.1326
     35 C          63.7703   90.6624   12.7629 C.3     1  UNL1        0.0067
     36 C          63.1082   89.4436   12.1918 C.3     1  UNL1        0.0475
@<TRIPOS>BOND
     1    35    36    1
     2    36    25    1
     3    25    26   ar
     4    26    27   ar
     5    27    28   ar
     6    28    29   ar
     7    29    30   ar
     8    30    31    1
     9    30    32   ar
    10    32    33   ar
    11    33    34   ar
    12    34    21    1
    13    21    22    2
    14    21    23   am
    15    23    20    1
    16    20     1    1
    17     1     2   ar
    18     2     3   ar
    19     3     4   ar
    20     4     7    1
    21     7     8    1
    22     8     9    1
    23     9    10    1
    24    10    13    1
    25    13    14   ar
    26    14    15   ar
    27    15    16   ar
    28    16    17    1
    29    16    18   ar
    30    18    19   ar
    31    10    11    1
    32    11    12    1
    33     4     5   ar
    34     5     6   ar
    35    34    25   ar
    36     6     1   ar
    37    33    27   ar
    38    12     7    1
    39    19    13   ar
    40    23    24    1
@<TRIPOS>MOLECULE
*****
 36 40 0 0 0
SMALL
GASTEIGER

@<TRIPOS>ATOM
      1 C          58.8226   91.2732    5.0496 C.ar    1  UNL1       -0.0025
      2 C          60.3086   91.1041    5.1637 C.ar    1  UNL1       -0.0014
      3 C          60.8782   90.1089    6.1308 C.ar    1  UNL1        0.0142
      4 C          59.9618   89.2828    6.9838 C.ar    1  UNL1        0.0478
      5 C          58.4757   89.4519    6.8697 C.ar    1  UNL1        0.0142
      6 C          57.9061   90.4471    5.9027 C.ar    1  UNL1       -0.0014
      7 N          60.5314   88.2877    7.9508 N.pl3   1  UNL1       -0.3075
      8 C          60.4065   86.8184    7.6757 C.3     1  UNL1        0.0911
      9 C          60.9762   85.8233    8.6428 C.3     1  UNL1        0.0258
     10 C          61.6707   86.2974    9.8849 C.3     1  UNL1        0.0257
     11 C          61.7955   87.7666   10.1600 C.3     1  UNL1        0.0258
     12 C          61.2259   88.7618    9.1930 C.3     1  UNL1        0.0911
     13 C          62.2403   85.3022   10.8520 C.ar    1  UNL1       -0.0223
     14 C          62.0460   85.4938   12.3269 C.ar    1  UNL1       -0.0034
     15 C          62.6156   84.4986   13.2940 C.ar    1  UNL1        0.0111
     16 C          63.3796   83.3118   12.7861 C.ar    1  UNL1        0.0577
     17 CL         63.9492   82.3167   13.7531 Cl      1  UNL1       -0.0822
     18 C          63.5738   83.1203   11.3111 C.ar    1  UNL1        0.0111
     19 C          63.0042   84.1154   10.3441 C.ar    1  UNL1       -0.0034
     20 C          58.2529   92.2683    4.0826 C.3     1  UNL1        0.1166
     21 C          59.5897   93.3180    2.1176 C.2     1  UNL1        0.2635
     22 O          60.0697   94.4098    3.0275 O.2     1  UNL1       -0.2685
     23 N          58.6814   92.2473    2.6452 N.am    1  UNL1       -0.2957
     24 H          58.3664   91.5307    2.0481 H       1  UNL1        0.1501
     25 C          59.1148   93.1399   -0.5068 C.ar    1  UNL1        0.0811
     26 N          59.9636   93.1752   -1.7431 N.ar    1  UNL1       -0.2306
     27 C          61.3916   93.3541   -1.3200 C.ar    1  UNL1        0.1475
     28 C          62.6654   93.4582   -2.1051 C.ar    1  UNL1        0.0383
     29 C          63.9730   93.6376   -1.3924 C.ar    1  UNL1        0.0160
     30 C          64.0068   93.7129    0.1053 C.ar    1  UNL1        0.0753
     31 CL         65.3145   93.8923    0.8180 Cl      1  UNL1       -0.0807
     32 C          62.7329   93.6088    0.8904 C.ar    1  UNL1        0.0929
     33 N          61.4253   93.4294    0.1777 N.ar    1  UNL1       -0.2845
     34 C          60.0182   93.2970    0.6803 C.ar    1  UNL1        0.1326
     35 C          56.8993   92.4040   -1.6468 C.3     1  UNL1        0.0067
     36 C          57.6244   92.9762   -0.4650 C.3     1  UNL1        0.0475
@<TRIPOS>BOND
     1    35    36    1
     2    36    25    1
     3    25    26   ar
     4    26    27   ar
     5    27    28   ar
     6    28    29   ar
     7    29    30   ar
     8    30    31    1
     9    30    32   ar
    10    32    33   ar
    11    33    34   ar
    12    34    21    1
    13    21    22    2
    14    21    23   am
    15    23    20    1
    16    20     1    1
    17     1     2   ar
    18     2     3   ar
    19     3     4   ar
    20     4     7    1
    21     7     8    1
    22     8     9    1
    23     9    10    1
    24    10    13    1
    25    13    14   ar
    26    14    15   ar
    27    15    16   ar
    28    16    17    1
    29    16    18   ar
    30    18    19   ar
    31    10    11    1
    32    11    12    1
    33     4     5   ar
    34     5     6   ar
    35    34    25   ar
    36     6     1   ar
    37    33    27   ar
    38    12     7    1
    39    19    13   ar
    40    23    24    1
@<TRIPOS>MOLECULE
*****
 36 40 0 0 0
SMALL
GASTEIGER

@<TRIPOS>ATOM
      1 C          59.7591   88.3115    9.1381 C.ar    1  UNL1       -0.0025
      2 C          60.5051   89.6128    9.1444 C.ar    1  UNL1       -0.0014
      3 C          60.5202   90.4747    7.9168 C.ar    1  UNL1        0.0142
      4 C          59.7892   90.0353    6.6829 C.ar    1  UNL1        0.0478
      5 C          59.0432   88.7340    6.6766 C.ar    1  UNL1        0.0142
      6 C          59.0281   87.8721    7.9041 C.ar    1  UNL1       -0.0014
      7 N          59.8043   90.8972    5.4553 N.pl3   1  UNL1       -0.3075
      8 C          58.5253   91.4822    4.9339 C.3     1  UNL1        0.0911
      9 C          58.5404   92.3440    3.7064 C.3     1  UNL1        0.0258
     10 C          59.8345   92.6210    3.0002 C.3     1  UNL1        0.0257
     11 C          61.1135   92.0360    3.5216 C.3     1  UNL1        0.0258
     12 C          61.0984   91.1741    4.7492 C.3     1  UNL1        0.0911
     13 C          59.8496   93.4829    1.7727 C.ar    1  UNL1       -0.0223
     14 C          60.5843   94.7905    1.7833 C.ar    1  UNL1       -0.0034
     15 C          60.5993   95.6524    0.5558 C.ar    1  UNL1        0.0111
     16 C          59.8797   95.2066   -0.6825 C.ar    1  UNL1        0.0577
     17 CL         59.8948   96.0685   -1.9101 Cl      1  UNL1       -0.0822
     18 C          59.1450   93.8990   -0.6932 C.ar    1  UNL1        0.0111
     19 C          59.1299   93.0371    0.5344 C.ar    1  UNL1       -0.0034
     20 C          59.7440   87.4496   10.3656 C.3     1  UNL1        0.1166
     21 C          62.0047   86.2271   10.7459 C.2     1  UNL1        0.2635
     22 O          62.6627   87.5397   11.0535 O.2     1  UNL1       -0.2685
     23 N          60.5454   86.1822   10.4021 N.am    1  UNL1       -0.2957
     24 H          60.1136   85.3208   10.2002 H       1  UNL1        0.1501
     25 C          63.4848   84.3117    9.6121 C.ar    1  UNL1        0.0811
     26 N          64.1677   83.0693   10.1020 N.ar    1  UNL1       -0.2306
     27 C          63.9111   82.9494   11.5750 C.ar    1  UNL1        0.1475
     28 C          64.3350   81.9273   12.5877 C.ar    1  UNL1        0.0383
     29 C          63.9174   82.0736   14.0209 C.ar    1  UNL1        0.0160
     30 C          63.0759   83.2419   14.4414 C.ar    1  UNL1        0.0753
     31 CL         62.6583   83.3882   15.8748 Cl      1  UNL1       -0.0807
     32 C          62.6520   84.2640   13.4287 C.ar    1  UNL1        0.0929
     33 N          63.0696   84.1177   11.9955 N.ar    1  UNL1       -0.2845
     34 C          62.8061   84.9597   10.7824 C.ar    1  UNL1        0.1326
     35 C          62.2049   84.8323    7.4119 C.3     1  UNL1        0.0067
     36 C          63.4811   84.8174    8.1999 C.3     1  UNL1        0.0475
@<TRIPOS>BOND
     1    35    36    1
     2    36    25    1
     3    25    26   ar
     4    26    27   ar
     5    27    28   ar
     6    28    29   ar
     7    29    30   ar
     8    30    31    1
     9    30    32   ar
    10    32    33   ar
    11    33    34   ar
    12    34    21    1
    13    21    22    2
    14    21    23   am
    15    23    20    1
    16    20     1    1
    17     1     2   ar
    18     2     3   ar
    19     3     4   ar
    20     4     7    1
    21     7     8    1
    22     8     9    1
    23     9    10    1
    24    10    13    1
    25    13    14   ar
    26    14    15   ar
    27    15    16   ar
    28    16    17    1
    29    16    18   ar
    30    18    19   ar
    31    10    11    1
    32    11    12    1
    33     4     5   ar
    34     5     6   ar
    35    34    25   ar
    36     6     1   ar
    37    33    27   ar
    38    12     7    1
    39    19    13   ar
    40    23    24    1
