@<TRIPOS>MOLECULE
*****
 38 41 0 0 0
SMALL
GASTEIGER

@<TRIPOS>ATOM
      1 C          61.5463   86.6071    9.2764 C.ar    1  UNL1        0.0611
      2 C          60.1624   86.3631    8.7520 C.ar    1  UNL1        0.1037
      3 N          59.3537   87.6052    8.9825 N.ar    1  UNL1       -0.2269
      4 C          60.2379   88.6169    9.6494 C.ar    1  UNL1        0.1407
      5 N          59.9841   90.0201   10.1147 N.ar    1  UNL1       -0.3374
      6 C          61.0855   90.8064   10.7617 C.ar    1  UNL1        0.0735
      7 C          62.4406   90.1895   10.9434 C.ar    1  UNL1        0.0187
      8 C          62.6944   88.7863   10.4781 C.ar    1  UNL1        0.0047
      9 C          61.5930   88.0000    9.8311 C.ar    1  UNL1        0.0386
     10 H          59.0947   90.4250    9.9955 H       1  UNL1        0.1674
     11 C          63.5420   90.9759   11.5904 C.ar    1  UNL1        0.0219
     12 C          63.7573   90.8858   13.0721 C.ar    1  UNL1        0.0990
     13 N          64.8587   91.6722   13.7192 N.ar    1  UNL1       -0.2410
     14 C          65.7448   92.5486   12.8845 C.ar    1  UNL1        0.1171
     15 C          65.5295   92.6387   11.4027 C.ar    1  UNL1        0.1248
     16 C          64.4281   91.8523   10.7557 C.ar    1  UNL1        0.0215
     17 S          66.4155   93.5151   10.5679 S.O2    1  UNL1        0.0119
     18 C          67.3016   94.3915    9.7332 C.3     1  UNL1        0.1816
     19 O          65.3202   94.5359   10.4771 O.2     1  UNL1       -0.1685
     20 O          67.5108   92.4942   10.6588 O.2     1  UNL1       -0.1685
     21 C          62.6840   85.6297    9.2508 C.2     1  UNL1        0.2015
     22 O          63.5436   85.5113    8.0274 O.2     1  UNL1       -0.2864
     23 C          62.6063   84.2379   12.9666 C.ar    1  UNL1        0.0920
     24 C          63.5177   83.0528   12.8445 C.ar    1  UNL1        0.0204
     25 C          64.1511   82.7266   11.5245 C.ar    1  UNL1        0.0312
     26 C          63.8733   83.5856   10.3266 C.ar    1  UNL1        0.1454
     27 F          64.5067   83.2594    9.0066 F       1  UNL1       -0.2040
     28 C          62.9619   84.7707   10.4487 C.ar    1  UNL1        0.0951
     29 C          62.3285   85.0968   11.7687 C.ar    1  UNL1        0.1598
     30 F          61.4171   86.2820   11.8908 F       1  UNL1       -0.2026
     31 N          61.9729   84.5640   14.2866 N.pl3   1  UNL1       -0.2166
     32 H          61.0162   84.3826   14.4317 H       1  UNL1        0.1734
     33 S          62.7971   85.1666   15.3855 S.O2    1  UNL1        0.0540
     34 O          63.4379   86.0943   14.3962 O.2     1  UNL1       -0.1545
     35 O          62.1564   84.2388   16.3748 O.2     1  UNL1       -0.1545
     36 C          63.6213   85.7690   16.4844 C.3     1  UNL1        0.1724
     37 C          63.0480   88.2087   17.1699 C.3     1  UNL1        0.0019
     38 C          62.9967   86.7354   17.4468 C.3     1  UNL1        0.0273
@<TRIPOS>BOND
     1    37    38    1
     2    38    36    1
     3    36    33    1
     4    33    34    2
     5    33    35    2
     6    33    31    1
     7    31    23    1
     8    23    24   ar
     9    24    25   ar
    10    25    26   ar
    11    26    27    1
    12    26    28   ar
    13    28    21    1
    14    21    22    2
    15    21     1    1
    16     1     2   ar
    17     2     3   ar
    18     3     4   ar
    19     4     5   ar
    20     5     6   ar
    21     6     7   ar
    22     7    11    1
    23    11    12   ar
    24    12    13   ar
    25    13    14   ar
    26    14    15   ar
    27    15    17    1
    28    17    18    1
    29    17    19    2
    30    17    20    2
    31    15    16   ar
    32     7     8   ar
    33     8     9   ar
    34    28    29   ar
    35    29    30    1
    36    29    23   ar
    37     9     1   ar
    38     9     4    1
    39    16    11   ar
    40    31    32    1
    41     5    10    1
@<TRIPOS>MOLECULE
*****
 38 41 0 0 0
SMALL
GASTEIGER

@<TRIPOS>ATOM
      1 C          61.8879   89.9127   11.7281 C.ar    1  UNL1        0.0611
      2 C          60.9816   90.8884   11.0377 C.ar    1  UNL1        0.1037
      3 N          60.2949   90.1687    9.9150 N.ar    1  UNL1       -0.2269
      4 C          60.7768   88.7482    9.9114 C.ar    1  UNL1        0.1407
      5 N          60.4463   87.5784    9.0327 N.ar    1  UNL1       -0.3374
      6 C          61.1004   86.2504    9.2744 C.ar    1  UNL1        0.0735
      7 C          62.0849   86.0921   10.3950 C.ar    1  UNL1        0.0187
      8 C          62.4154   87.2619   11.2738 C.ar    1  UNL1        0.0047
      9 C          61.7614   88.5900   11.0320 C.ar    1  UNL1        0.0386
     10 H          59.8001   87.6823    8.2972 H       1  UNL1        0.1674
     11 C          62.7390   84.7640   10.6367 C.ar    1  UNL1        0.0219
     12 C          63.8315   84.2891    9.7253 C.ar    1  UNL1        0.0990
     13 N          64.4856   82.9610    9.9670 N.ar    1  UNL1       -0.2410
     14 C          64.0470   82.1078   11.1202 C.ar    1  UNL1        0.1171
     15 C          62.9544   82.5828   12.0316 C.ar    1  UNL1        0.1248
     16 C          62.3004   83.9109   11.7899 C.ar    1  UNL1        0.0215
     17 S          62.5158   81.7297   13.1848 S.O2    1  UNL1        0.0119
     18 C          62.0772   80.8765   14.3380 C.3     1  UNL1        0.1816
     19 O          62.3083   82.9606   14.0165 O.2     1  UNL1       -0.1685
     20 O          62.7233   80.4987   12.3531 O.2     1  UNL1       -0.1685
     21 C          62.7666   90.2078   12.9074 C.2     1  UNL1        0.2015
     22 O          62.3771   89.7238   14.2726 O.2     1  UNL1       -0.2864
     23 C          65.5508   92.5002   11.2511 C.ar    1  UNL1        0.0920
     24 C          66.5712   92.5453   12.3497 C.ar    1  UNL1        0.0204
     25 C          66.3234   91.8113   13.6341 C.ar    1  UNL1        0.0312
     26 C          65.0552   91.0321   13.8200 C.ar    1  UNL1        0.1454
     27 F          64.8074   90.2980   15.1045 F       1  UNL1       -0.2040
     28 C          64.0348   90.9870   12.7215 C.ar    1  UNL1        0.0951
     29 C          64.2826   91.7211   11.4371 C.ar    1  UNL1        0.1598
     30 F          63.2621   91.6759   10.3386 F       1  UNL1       -0.2026
     31 N          65.7986   93.2343    9.9667 N.pl3   1  UNL1       -0.2166
     32 H          65.4717   92.8619    9.1160 H       1  UNL1        0.1734
     33 S          66.5443   94.5357    9.9785 S.O2    1  UNL1        0.0540
     34 O          67.7275   93.8634    9.3477 O.2     1  UNL1       -0.1545
     35 O          65.3610   95.2080   10.6093 O.2     1  UNL1       -0.1545
     36 C          67.2899   95.8372    9.9904 C.3     1  UNL1        0.1724
     37 C          66.2790   96.4881    7.6872 C.3     1  UNL1        0.0019
     38 C          67.2899   96.7127    8.7723 C.3     1  UNL1        0.0273
@<TRIPOS>BOND
     1    37    38    1
     2    38    36    1
     3    36    33    1
     4    33    34    2
     5    33    35    2
     6    33    31    1
     7    31    23    1
     8    23    24   ar
     9    24    25   ar
    10    25    26   ar
    11    26    27    1
    12    26    28   ar
    13    28    21    1
    14    21    22    2
    15    21     1    1
    16     1     2   ar
    17     2     3   ar
    18     3     4   ar
    19     4     5   ar
    20     5     6   ar
    21     6     7   ar
    22     7    11    1
    23    11    12   ar
    24    12    13   ar
    25    13    14   ar
    26    14    15   ar
    27    15    17    1
    28    17    18    1
    29    17    19    2
    30    17    20    2
    31    15    16   ar
    32     7     8   ar
    33     8     9   ar
    34    28    29   ar
    35    29    30    1
    36    29    23   ar
    37     9     1   ar
    38     9     4    1
    39    16    11   ar
    40    31    32    1
    41     5    10    1
@<TRIPOS>MOLECULE
*****
 38 41 0 0 0
SMALL
GASTEIGER

@<TRIPOS>ATOM
      1 C          60.3790   89.2446    9.5904 C.ar    1  UNL1        0.0611
      2 C          59.6872   89.6891    8.3359 C.ar    1  UNL1        0.1037
      3 N          59.7970   88.5825    7.3292 N.ar    1  UNL1       -0.2269
      4 C          60.5566   87.4542    7.9615 C.ar    1  UNL1        0.1407
      5 N          60.9672   86.1070    7.4453 N.ar    1  UNL1       -0.3374
      6 C          61.7375   85.1690    8.3266 C.ar    1  UNL1        0.0735
      7 C          62.0972   85.5782    9.7242 C.ar    1  UNL1        0.0187
      8 C          61.6866   86.9254   10.2404 C.ar    1  UNL1        0.0047
      9 C          60.9163   87.8633    9.3591 C.ar    1  UNL1        0.0386
     10 H          60.7311   85.8384    6.5280 H       1  UNL1        0.1674
     11 C          62.8675   84.6401   10.6055 C.ar    1  UNL1        0.0219
     12 C          63.8718   83.7015   10.0052 C.ar    1  UNL1        0.0990
     13 N          64.6421   82.7635   10.8866 N.ar    1  UNL1       -0.2410
     14 C          64.4081   82.7641   12.3682 C.ar    1  UNL1        0.1171
     15 C          63.4038   83.7028   12.9685 C.ar    1  UNL1        0.1248
     16 C          62.6335   84.6408   12.0872 C.ar    1  UNL1        0.0215
     17 S          63.1698   83.7034   14.4502 S.O2    1  UNL1        0.0119
     18 C          62.9358   83.7041   15.9318 C.3     1  UNL1        0.1816
     19 O          63.7081   82.3060   14.5358 O.2     1  UNL1       -0.1685
     20 O          62.6314   85.1009   14.3645 O.2     1  UNL1       -0.1685
     21 C          60.5104   90.0414   10.8545 C.2     1  UNL1        0.2015
     22 O          59.2881   90.3957   11.6482 O.2     1  UNL1       -0.2864
     23 C          63.5997   90.7690   13.2371 C.ar    1  UNL1        0.0920
     24 C          64.5721   91.3691   12.2653 C.ar    1  UNL1        0.0204
     25 C          64.1906   91.5265   10.8232 C.ar    1  UNL1        0.0312
     26 C          62.8367   91.0840   10.3529 C.ar    1  UNL1        0.1454
     27 F          62.4552   91.2415    8.9108 F       1  UNL1       -0.2040
     28 C          61.8644   90.4840   11.3247 C.ar    1  UNL1        0.0951
     29 C          62.2459   90.3265   12.7668 C.ar    1  UNL1        0.1598
     30 F          61.2734   89.7265   13.7386 F       1  UNL1       -0.2026
     31 N          63.9813   90.6116   14.6792 N.pl3   1  UNL1       -0.2166
     32 H          64.3609   91.3734   15.1740 H       1  UNL1        0.1734
     33 S          63.7843   89.2935   15.3675 S.O2    1  UNL1        0.0540
     34 O          62.9806   89.9719   16.4369 O.2     1  UNL1       -0.1545
     35 O          64.5880   88.6150   14.2980 O.2     1  UNL1       -0.1545
     36 C          63.5874   87.9753   16.0557 C.3     1  UNL1        0.1724
     37 C          62.6608   86.5963   18.0532 C.3     1  UNL1        0.0019
     38 C          62.8697   87.9160   17.3715 C.3     1  UNL1        0.0273
@<TRIPOS>BOND
     1    37    38    1
     2    38    36    1
     3    36    33    1
     4    33    34    2
     5    33    35    2
     6    33    31    1
     7    31    23    1
     8    23    24   ar
     9    24    25   ar
    10    25    26   ar
    11    26    27    1
    12    26    28   ar
    13    28    21    1
    14    21    22    2
    15    21     1    1
    16     1     2   ar
    17     2     3   ar
    18     3     4   ar
    19     4     5   ar
    20     5     6   ar
    21     6     7   ar
    22     7    11    1
    23    11    12   ar
    24    12    13   ar
    25    13    14   ar
    26    14    15   ar
    27    15    17    1
    28    17    18    1
    29    17    19    2
    30    17    20    2
    31    15    16   ar
    32     7     8   ar
    33     8     9   ar
    34    28    29   ar
    35    29    30    1
    36    29    23   ar
    37     9     1   ar
    38     9     4    1
    39    16    11   ar
    40    31    32    1
    41     5    10    1
@<TRIPOS>MOLECULE
*****
 38 41 0 0 0
SMALL
GASTEIGER

@<TRIPOS>ATOM
      1 C          63.5922   85.5639   15.3693 C.ar    1  UNL1        0.0611
      2 C          62.6913   84.9451   16.3966 C.ar    1  UNL1        0.1037
      3 N          62.1456   86.0456   17.2576 N.ar    1  UNL1       -0.2269
      4 C          62.7092   87.3444   16.7624 C.ar    1  UNL1        0.1407
      5 N          62.5239   88.7597   17.2234 N.ar    1  UNL1       -0.3374
      6 C          63.2326   89.8773   16.5173 C.ar    1  UNL1        0.0735
      7 C          64.1267   89.5797   15.3503 C.ar    1  UNL1        0.0187
      8 C          64.3121   88.1644   14.8893 C.ar    1  UNL1        0.0047
      9 C          63.6033   87.0468   15.5954 C.ar    1  UNL1        0.0386
     10 H          61.9371   88.9551   17.9894 H       1  UNL1        0.1674
     11 C          64.8355   90.6974   14.6443 C.ar    1  UNL1        0.0219
     12 C          64.3160   91.2041   13.3315 C.ar    1  UNL1        0.0990
     13 N          65.0248   92.3218   12.6255 N.ar    1  UNL1       -0.2410
     14 C          66.2531   92.9328   13.2322 C.ar    1  UNL1        0.1171
     15 C          66.7725   92.4260   14.5450 C.ar    1  UNL1        0.1248
     16 C          66.0638   91.3083   15.2510 C.ar    1  UNL1        0.0215
     17 S          68.0008   93.0369   15.1518 S.O2    1  UNL1        0.0119
     18 C          69.2290   93.6479   15.7586 C.3     1  UNL1        0.1816
     19 O          67.1896   93.5032   16.3243 O.2     1  UNL1       -0.1685
     20 O          68.8119   92.5707   13.9793 O.2     1  UNL1       -0.1685
     21 C          64.3492   84.8289   14.3031 C.2     1  UNL1        0.2015
     22 O          65.7690   84.4101   14.5447 O.2     1  UNL1       -0.2864
     23 C          62.6536   85.3050   10.7466 C.ar    1  UNL1        0.0920
     24 C          62.3603   83.8805   10.3795 C.ar    1  UNL1        0.0204
     25 C          62.7299   82.7722   11.3202 C.ar    1  UNL1        0.0312
     26 C          63.3929   83.0883   12.6280 C.ar    1  UNL1        0.1454
     27 F          63.7626   81.9799   13.5687 F       1  UNL1       -0.2040
     28 C          63.6862   84.5128   12.9952 C.ar    1  UNL1        0.0951
     29 C          63.3165   85.6211   12.0545 C.ar    1  UNL1        0.1598
     30 F          63.6098   87.0456   12.4217 F       1  UNL1       -0.2026
     31 N          62.2839   86.4133    9.8059 N.pl3   1  UNL1       -0.2166
     32 H          62.9772   87.0272    9.4718 H       1  UNL1        0.1734
     33 S          60.8578   86.5863    9.3742 S.O2    1  UNL1        0.0540
     34 O          61.1907   85.9939    8.0370 O.2     1  UNL1       -0.1545
     35 O          60.5249   87.1788   10.7115 O.2     1  UNL1       -0.1545
     36 C          59.4317   86.7593    8.9427 C.3     1  UNL1        0.1724
     37 C          59.3488   88.7995    7.3361 C.3     1  UNL1        0.0019
     38 C          59.1212   87.3396    7.5948 C.3     1  UNL1        0.0273
@<TRIPOS>BOND
     1    37    38    1
     2    38    36    1
     3    36    33    1
     4    33    34    2
     5    33    35    2
     6    33    31    1
     7    31    23    1
     8    23    24   ar
     9    24    25   ar
    10    25    26   ar
    11    26    27    1
    12    26    28   ar
    13    28    21    1
    14    21    22    2
    15    21     1    1
    16     1     2   ar
    17     2     3   ar
    18     3     4   ar
    19     4     5   ar
    20     5     6   ar
    21     6     7   ar
    22     7    11    1
    23    11    12   ar
    24    12    13   ar
    25    13    14   ar
    26    14    15   ar
    27    15    17    1
    28    17    18    1
    29    17    19    2
    30    17    20    2
    31    15    16   ar
    32     7     8   ar
    33     8     9   ar
    34    28    29   ar
    35    29    30    1
    36    29    23   ar
    37     9     1   ar
    38     9     4    1
    39    16    11   ar
    40    31    32    1
    41     5    10    1
@<TRIPOS>MOLECULE
*****
 38 41 0 0 0
SMALL
GASTEIGER

@<TRIPOS>ATOM
      1 C          60.7270   89.2821   10.1294 C.ar    1  UNL1        0.0611
      2 C          59.9368   89.8362    8.9811 C.ar    1  UNL1        0.1037
      3 N          59.8968   88.7958    7.9013 N.ar    1  UNL1       -0.2269
      4 C          60.6622   87.5988    8.3822 C.ar    1  UNL1        0.1407
      5 N          60.9583   86.2740    7.7441 N.ar    1  UNL1       -0.3374
      6 C          61.7674   85.2497    8.4831 C.ar    1  UNL1        0.0735
      7 C          62.2805   85.5503    9.8602 C.ar    1  UNL1        0.0187
      8 C          61.9845   86.8751   10.4983 C.ar    1  UNL1        0.0047
      9 C          61.1753   87.8993    9.7593 C.ar    1  UNL1        0.0386
     10 H          60.6215   86.0767    6.8403 H       1  UNL1        0.1674
     11 C          63.0897   84.5260   10.5992 C.ar    1  UNL1        0.0219
     12 C          63.8743   83.4986    9.8384 C.ar    1  UNL1        0.0990
     13 N          64.6835   82.4742   10.5774 N.ar    1  UNL1       -0.2410
     14 C          64.7080   82.4774   12.0772 C.ar    1  UNL1        0.1171
     15 C          63.9234   83.5049   12.8380 C.ar    1  UNL1        0.1248
     16 C          63.1143   84.5291   12.0990 C.ar    1  UNL1        0.0215
     17 S          63.9480   83.5080   14.3378 S.O2    1  UNL1        0.0119
     18 C          63.9726   83.5112   15.8376 C.3     1  UNL1        0.1816
     19 O          63.5973   82.0496   14.3466 O.2     1  UNL1       -0.1685
     20 O          64.2988   84.9664   14.3290 O.2     1  UNL1       -0.1685
     21 C          61.0178   89.9870   11.4211 C.2     1  UNL1        0.2015
     22 O          59.9431   90.1263   12.4581 O.2     1  UNL1       -0.2864
     23 C          64.3946   90.9445   13.2735 C.ar    1  UNL1        0.0920
     24 C          65.1149   91.6842   12.1854 C.ar    1  UNL1        0.0204
     25 C          64.4696   91.8581   10.8425 C.ar    1  UNL1        0.0312
     26 C          63.1039   91.2924   10.5877 C.ar    1  UNL1        0.1454
     27 F          62.4586   91.4663    9.2449 F       1  UNL1       -0.2040
     28 C          62.3836   90.5528   11.6759 C.ar    1  UNL1        0.0951
     29 C          63.0289   90.3789   13.0187 C.ar    1  UNL1        0.1598
     30 F          62.3085   89.6392   14.1069 F       1  UNL1       -0.2026
     31 N          65.0399   90.7706   14.6164 N.pl3   1  UNL1       -0.2166
     32 H          64.8891   89.9455   15.1318 H       1  UNL1        0.1734
     33 S          65.9150   91.8538   15.1739 S.O2    1  UNL1        0.0540
     34 O          67.0902   91.2840   14.4362 O.2     1  UNL1       -0.1545
     35 O          64.7398   92.4236   15.9115 O.2     1  UNL1       -0.1545
     36 C          66.7900   92.9371   15.7314 C.3     1  UNL1        0.1724
     37 C          69.1416   94.0044   16.0162 C.3     1  UNL1        0.0019
     38 C          68.2738   92.8876   15.5167 C.3     1  UNL1        0.0273
@<TRIPOS>BOND
     1    37    38    1
     2    38    36    1
     3    36    33    1
     4    33    34    2
     5    33    35    2
     6    33    31    1
     7    31    23    1
     8    23    24   ar
     9    24    25   ar
    10    25    26   ar
    11    26    27    1
    12    26    28   ar
    13    28    21    1
    14    21    22    2
    15    21     1    1
    16     1     2   ar
    17     2     3   ar
    18     3     4   ar
    19     4     5   ar
    20     5     6   ar
    21     6     7   ar
    22     7    11    1
    23    11    12   ar
    24    12    13   ar
    25    13    14   ar
    26    14    15   ar
    27    15    17    1
    28    17    18    1
    29    17    19    2
    30    17    20    2
    31    15    16   ar
    32     7     8   ar
    33     8     9   ar
    34    28    29   ar
    35    29    30    1
    36    29    23   ar
    37     9     1   ar
    38     9     4    1
    39    16    11   ar
    40    31    32    1
    41     5    10    1
@<TRIPOS>MOLECULE
*****
 38 41 0 0 0
SMALL
GASTEIGER

@<TRIPOS>ATOM
      1 C          64.3388   90.4889   15.0388 C.ar    1  UNL1        0.0611
      2 C          63.9056   91.3904   16.1566 C.ar    1  UNL1        0.1037
      3 N          63.2645   90.5419   17.2144 N.ar    1  UNL1       -0.2269
      4 C          63.3013   89.1160   16.7504 C.ar    1  UNL1        0.1407
      5 N          62.8161   87.8432   17.3785 N.ar    1  UNL1       -0.3374
      6 C          62.9948   86.5377   16.6619 C.ar    1  UNL1        0.0735
      7 C          63.6588   86.5048   15.3173 C.ar    1  UNL1        0.0187
      8 C          64.1440   87.7776   14.6892 C.ar    1  UNL1        0.0047
      9 C          63.9653   89.0832   15.4057 C.ar    1  UNL1        0.0386
     10 H          62.3803   87.8648   18.2610 H       1  UNL1        0.1674
     11 C          63.8375   85.1992   14.6007 C.ar    1  UNL1        0.0219
     12 C          64.1326   83.9511   15.3786 C.ar    1  UNL1        0.0990
     13 N          64.3113   82.6454   14.6620 N.ar    1  UNL1       -0.2410
     14 C          64.1949   82.5879   13.1677 C.ar    1  UNL1        0.1171
     15 C          63.8998   83.8361   12.3898 C.ar    1  UNL1        0.1248
     16 C          63.7211   85.1417   13.1064 C.ar    1  UNL1        0.0215
     17 S          63.7834   83.7787   10.8954 S.O2    1  UNL1        0.0119
     18 C          63.6670   83.7212    9.4011 C.3     1  UNL1        0.1816
     19 O          62.7268   84.8425   10.9368 O.2     1  UNL1       -0.1685
     20 O          64.8401   82.7148   10.8541 O.2     1  UNL1       -0.1685
     21 C          65.0249   90.9176   13.7757 C.2     1  UNL1        0.2015
     22 O          66.4963   91.2089   13.7832 O.2     1  UNL1       -0.2864
     23 C          62.0573   90.6522   11.1540 C.ar    1  UNL1        0.0920
     24 C          62.6690   91.3303    9.9639 C.ar    1  UNL1        0.0204
     25 C          64.0659   91.8707   10.0445 C.ar    1  UNL1        0.0312
     26 C          64.8512   91.7332   11.3150 C.ar    1  UNL1        0.1454
     27 F          66.2482   92.2737   11.3956 F       1  UNL1       -0.2040
     28 C          64.2396   91.0552   12.5050 C.ar    1  UNL1        0.0951
     29 C          62.8427   90.5147   12.4245 C.ar    1  UNL1        0.1598
     30 F          62.2311   89.8367   13.6146 F       1  UNL1       -0.2026
     31 N          60.6604   90.1118   11.0734 N.pl3   1  UNL1       -0.2166
     32 H          59.9065   90.6427   11.4183 H       1  UNL1        0.1734
     33 S          60.4122   88.7623   10.4674 S.O2    1  UNL1        0.0540
     34 O          60.2849   89.3939    9.1129 O.2     1  UNL1       -0.1545
     35 O          60.5394   88.1306   11.8220 O.2     1  UNL1       -0.1545
     36 C          60.1640   87.4128    9.8615 C.3     1  UNL1        0.1724
     37 C          60.0123   86.0638    7.6462 C.3     1  UNL1        0.0019
     38 C          59.7100   87.3026    8.4361 C.3     1  UNL1        0.0273
@<TRIPOS>BOND
     1    37    38    1
     2    38    36    1
     3    36    33    1
     4    33    34    2
     5    33    35    2
     6    33    31    1
     7    31    23    1
     8    23    24   ar
     9    24    25   ar
    10    25    26   ar
    11    26    27    1
    12    26    28   ar
    13    28    21    1
    14    21    22    2
    15    21     1    1
    16     1     2   ar
    17     2     3   ar
    18     3     4   ar
    19     4     5   ar
    20     5     6   ar
    21     6     7   ar
    22     7    11    1
    23    11    12   ar
    24    12    13   ar
    25    13    14   ar
    26    14    15   ar
    27    15    17    1
    28    17    18    1
    29    17    19    2
    30    17    20    2
    31    15    16   ar
    32     7     8   ar
    33     8     9   ar
    34    28    29   ar
    35    29    30    1
    36    29    23   ar
    37     9     1   ar
    38     9     4    1
    39    16    11   ar
    40    31    32    1
    41     5    10    1
@<TRIPOS>MOLECULE
*****
 38 41 0 0 0
SMALL
GASTEIGER

@<TRIPOS>ATOM
      1 C          63.4928   84.1717   13.9583 C.ar    1  UNL1        0.0611
      2 C          63.0079   83.2957   15.0751 C.ar    1  UNL1        0.1037
      3 N          62.7667   84.1642   16.2741 N.ar    1  UNL1       -0.2269
      4 C          63.1026   85.5770   15.8982 C.ar    1  UNL1        0.1407
      5 N          63.0577   86.8598   16.6743 N.ar    1  UNL1       -0.3374
      6 C          63.4617   88.1472   16.0190 C.ar    1  UNL1        0.0735
      7 C          63.9104   88.1518   14.5877 C.ar    1  UNL1        0.0187
      8 C          63.9552   86.8690   13.8117 C.ar    1  UNL1        0.0047
      9 C          63.5513   85.5816   14.4669 C.ar    1  UNL1        0.0386
     10 H          62.7632   86.8568   17.6137 H       1  UNL1        0.1674
     11 C          64.3144   89.4393   13.9325 C.ar    1  UNL1        0.0219
     12 C          63.7090   89.8342   12.6182 C.ar    1  UNL1        0.0990
     13 N          64.1130   91.1217   11.9629 N.ar    1  UNL1       -0.2410
     14 C          65.1223   92.0143   12.6222 C.ar    1  UNL1        0.1171
     15 C          65.7276   91.6194   13.9366 C.ar    1  UNL1        0.1248
     16 C          65.3236   90.3319   14.5918 C.ar    1  UNL1        0.0215
     17 S          66.7369   92.5120   14.5959 S.O2    1  UNL1        0.0119
     18 C          67.7462   93.4046   15.2551 C.3     1  UNL1        0.1816
     19 O          67.5142   91.3073   15.0370 O.2     1  UNL1       -0.1685
     20 O          65.9596   93.7167   14.1548 O.2     1  UNL1       -0.1685
     21 C          63.8555   83.7175   12.5754 C.2     1  UNL1        0.2015
     22 O          64.8104   82.5762   12.3872 O.2     1  UNL1       -0.2864
     23 C          61.5172   86.0347   10.3588 C.ar    1  UNL1        0.0920
     24 C          62.0790   85.7793    8.9917 C.ar    1  UNL1        0.0204
     25 C          63.2330   84.8366    8.8191 C.ar    1  UNL1        0.0312
     26 C          63.8252   84.1494   10.0136 C.ar    1  UNL1        0.1454
     27 F          64.9791   83.2067    9.8410 F       1  UNL1       -0.2040
     28 C          63.2633   84.4048   11.3808 C.ar    1  UNL1        0.0951
     29 C          62.1094   85.3474   11.5533 C.ar    1  UNL1        0.1598
     30 F          61.5476   85.6028   12.9206 F       1  UNL1       -0.2026
     31 N          60.3632   86.9773   10.5314 N.pl3   1  UNL1       -0.2166
     32 H          59.7593   86.8801   11.3028 H       1  UNL1        0.1734
     33 S          60.1294   88.0680    9.5286 S.O2    1  UNL1        0.0540
     34 O          59.1684   87.1837    8.7908 O.2     1  UNL1       -0.1545
     35 O          61.0904   88.9524   10.2664 O.2     1  UNL1       -0.1545
     36 C          59.8956   89.1588    8.5259 C.3     1  UNL1        0.1724
     37 C          59.3512   89.8273    6.0749 C.3     1  UNL1        0.0019
     38 C          59.2739   88.8373    7.1991 C.3     1  UNL1        0.0273
@<TRIPOS>BOND
     1    37    38    1
     2    38    36    1
     3    36    33    1
     4    33    34    2
     5    33    35    2
     6    33    31    1
     7    31    23    1
     8    23    24   ar
     9    24    25   ar
    10    25    26   ar
    11    26    27    1
    12    26    28   ar
    13    28    21    1
    14    21    22    2
    15    21     1    1
    16     1     2   ar
    17     2     3   ar
    18     3     4   ar
    19     4     5   ar
    20     5     6   ar
    21     6     7   ar
    22     7    11    1
    23    11    12   ar
    24    12    13   ar
    25    13    14   ar
    26    14    15   ar
    27    15    17    1
    28    17    18    1
    29    17    19    2
    30    17    20    2
    31    15    16   ar
    32     7     8   ar
    33     8     9   ar
    34    28    29   ar
    35    29    30    1
    36    29    23   ar
    37     9     1   ar
    38     9     4    1
    39    16    11   ar
    40    31    32    1
    41     5    10    1
@<TRIPOS>MOLECULE
*****
 38 41 0 0 0
SMALL
GASTEIGER

@<TRIPOS>ATOM
      1 C          61.5815   86.7475    9.6822 C.ar    1  UNL1        0.0611
      2 C          60.1334   86.4218    9.4662 C.ar    1  UNL1        0.1037
      3 N          59.3269   87.6342    9.8265 N.ar    1  UNL1       -0.2269
      4 C          60.2767   88.7091   10.2652 C.ar    1  UNL1        0.1407
      5 N          60.0528   90.1161   10.7343 N.ar    1  UNL1       -0.3374
      6 C          61.2223   90.9751   11.1142 C.ar    1  UNL1        0.0735
      7 C          62.6157   90.4271   11.0250 C.ar    1  UNL1        0.0187
      8 C          62.8397   89.0201   10.5558 C.ar    1  UNL1        0.0047
      9 C          61.6702   88.1611   10.1760 C.ar    1  UNL1        0.0386
     10 H          59.1382   90.4758   10.7928 H       1  UNL1        0.1674
     11 C          63.7853   91.2862   11.4049 C.ar    1  UNL1        0.0219
     12 C          64.5324   92.0455   10.3489 C.ar    1  UNL1        0.0990
     13 N          65.7020   92.9046   10.7289 N.ar    1  UNL1       -0.2410
     14 C          66.1242   93.0043   12.1648 C.ar    1  UNL1        0.1171
     15 C          65.3770   92.2448   13.2207 C.ar    1  UNL1        0.1248
     16 C          64.2075   91.3858   12.8408 C.ar    1  UNL1        0.0215
     17 S          65.7993   92.3445   14.6566 S.O2    1  UNL1        0.0119
     18 C          66.2215   92.4441   16.0925 C.3     1  UNL1        0.1816
     19 O          64.6703   91.4392   15.0514 O.2     1  UNL1       -0.1685
     20 O          66.9282   93.2498   14.2617 O.2     1  UNL1       -0.1685
     21 C          62.7381   85.8220    9.4459 C.2     1  UNL1        0.2015
     22 O          63.6906   86.0848    8.3174 O.2     1  UNL1       -0.2864
     23 C          62.8215   83.5400   12.6918 C.ar    1  UNL1        0.0920
     24 C          63.3504   82.2569   12.1227 C.ar    1  UNL1        0.0204
     25 C          63.6752   82.1621   10.6614 C.ar    1  UNL1        0.0312
     26 C          63.4711   83.3504    9.7691 C.ar    1  UNL1        0.1454
     27 F          63.7959   83.2556    8.3078 F       1  UNL1       -0.2040
     28 C          62.9422   84.6336   10.3382 C.ar    1  UNL1        0.0951
     29 C          62.6174   84.7283   11.7995 C.ar    1  UNL1        0.1598
     30 F          62.0885   86.0115   12.3685 F       1  UNL1       -0.2026
     31 N          62.4967   83.6348   14.1532 N.pl3   1  UNL1       -0.2166
     32 H          61.8179   83.0398   14.5462 H       1  UNL1        0.1734
     33 S          63.2062   84.6361   15.0157 S.O2    1  UNL1        0.0540
     34 O          64.5244   84.1700   14.4725 O.2     1  UNL1       -0.1545
     35 O          61.8880   85.1022   15.5590 O.2     1  UNL1       -0.1545
     36 C          63.9156   85.6374   15.8783 C.3     1  UNL1        0.1724
     37 C          64.3097   87.8661   14.6024 C.3     1  UNL1        0.0019
     38 C          64.8527   86.6312   15.2583 C.3     1  UNL1        0.0273
@<TRIPOS>BOND
     1    37    38    1
     2    38    36    1
     3    36    33    1
     4    33    34    2
     5    33    35    2
     6    33    31    1
     7    31    23    1
     8    23    24   ar
     9    24    25   ar
    10    25    26   ar
    11    26    27    1
    12    26    28   ar
    13    28    21    1
    14    21    22    2
    15    21     1    1
    16     1     2   ar
    17     2     3   ar
    18     3     4   ar
    19     4     5   ar
    20     5     6   ar
    21     6     7   ar
    22     7    11    1
    23    11    12   ar
    24    12    13   ar
    25    13    14   ar
    26    14    15   ar
    27    15    17    1
    28    17    18    1
    29    17    19    2
    30    17    20    2
    31    15    16   ar
    32     7     8   ar
    33     8     9   ar
    34    28    29   ar
    35    29    30    1
    36    29    23   ar
    37     9     1   ar
    38     9     4    1
    39    16    11   ar
    40    31    32    1
    41     5    10    1
@<TRIPOS>MOLECULE
*****
 38 41 0 0 0
SMALL
GASTEIGER

@<TRIPOS>ATOM
      1 C          60.4126   89.3891    9.5857 C.ar    1  UNL1        0.0611
      2 C          59.7551   89.6762    8.2683 C.ar    1  UNL1        0.1037
      3 N          59.8916   88.4560    7.4066 N.ar    1  UNL1       -0.2269
      4 C          60.6334   87.4149    8.1913 C.ar    1  UNL1        0.1407
      5 N          61.0573   86.0162    7.8536 N.ar    1  UNL1       -0.3374
      6 C          61.8031   85.1943    8.8626 C.ar    1  UNL1        0.0735
      7 C          62.1251   85.7710   10.2093 C.ar    1  UNL1        0.0187
      8 C          61.7012   87.1697   10.5471 C.ar    1  UNL1        0.0047
      9 C          60.9554   87.9916    9.5381 C.ar    1  UNL1        0.0386
     10 H          60.8460   85.6377    6.9697 H       1  UNL1        0.1674
     11 C          62.8710   84.9490   11.2184 C.ar    1  UNL1        0.0219
     12 C          63.5361   83.6711   10.8006 C.ar    1  UNL1        0.0990
     13 N          64.2820   82.8491   11.8096 N.ar    1  UNL1       -0.2410
     14 C          64.3627   83.3051   13.2364 C.ar    1  UNL1        0.1171
     15 C          63.6975   84.5831   13.6541 C.ar    1  UNL1        0.1248
     16 C          62.9517   85.4050   12.6451 C.ar    1  UNL1        0.0215
     17 S          63.7782   85.0390   15.0808 S.O2    1  UNL1        0.0119
     18 C          63.8589   85.4950   16.5076 C.3     1  UNL1        0.1816
     19 O          63.8012   86.4673   14.6231 O.2     1  UNL1       -0.1685
     20 O          63.7553   83.6108   15.5386 O.2     1  UNL1       -0.1685
     21 C          60.5101   90.3338   10.7468 C.2     1  UNL1        0.2015
     22 O          59.2934   91.0762   11.2139 O.2     1  UNL1       -0.2864
     23 C          64.2795   91.3856   11.4068 C.ar    1  UNL1        0.0920
     24 C          64.4532   90.9404   12.8287 C.ar    1  UNL1        0.0204
     25 C          63.3126   90.2930   13.5565 C.ar    1  UNL1        0.0312
     26 C          61.9982   90.0908   12.8626 C.ar    1  UNL1        0.1454
     27 F          60.8576   89.4434   13.5905 F       1  UNL1       -0.2040
     28 C          61.8245   90.5360   11.4408 C.ar    1  UNL1        0.0951
     29 C          62.9652   91.1834   10.7129 C.ar    1  UNL1        0.1598
     30 F          62.7914   91.6285    9.2910 F       1  UNL1       -0.2026
     31 N          65.4202   92.0330   10.6789 N.pl3   1  UNL1       -0.2166
     32 H          65.8304   91.5818    9.9060 H       1  UNL1        0.1734
     33 S          65.9359   93.3678   11.1287 S.O2    1  UNL1        0.0540
     34 O          64.8219   94.0474   10.3889 O.2     1  UNL1       -0.1545
     35 O          67.0498   92.6882   11.8685 O.2     1  UNL1       -0.1545
     36 C          66.4516   94.7026   11.5785 C.3     1  UNL1        0.1724
     37 C          67.1583   96.4256    9.7669 C.3     1  UNL1        0.0019
     38 C          66.1583   95.9313   10.7697 C.3     1  UNL1        0.0273
@<TRIPOS>BOND
     1    37    38    1
     2    38    36    1
     3    36    33    1
     4    33    34    2
     5    33    35    2
     6    33    31    1
     7    31    23    1
     8    23    24   ar
     9    24    25   ar
    10    25    26   ar
    11    26    27    1
    12    26    28   ar
    13    28    21    1
    14    21    22    2
    15    21     1    1
    16     1     2   ar
    17     2     3   ar
    18     3     4   ar
    19     4     5   ar
    20     5     6   ar
    21     6     7   ar
    22     7    11    1
    23    11    12   ar
    24    12    13   ar
    25    13    14   ar
    26    14    15   ar
    27    15    17    1
    28    17    18    1
    29    17    19    2
    30    17    20    2
    31    15    16   ar
    32     7     8   ar
    33     8     9   ar
    34    28    29   ar
    35    29    30    1
    36    29    23   ar
    37     9     1   ar
    38     9     4    1
    39    16    11   ar
    40    31    32    1
    41     5    10    1
