@<TRIPOS>MOLECULE
*****
 29 32 0 0 0
SMALL
GASTEIGER

@<TRIPOS>ATOM
      1 C          63.0400   89.5158   11.8996 C.ar    1  UNL1        0.0686
      2 C          62.9811   90.4944   10.7643 C.ar    1  UNL1        0.1045
      3 N          63.7954   91.7530   10.8159 N.ar    1  UNL1       -0.2290
      4 C          64.6687   92.0331   12.0029 C.ar    1  UNL1        0.1319
      5 C          64.7276   91.0546   13.1383 C.ar    1  UNL1        0.0303
      6 C          63.9132   89.7959   13.0866 C.ar    1  UNL1       -0.0138
      7 O          60.7277   88.3315   11.8730 O.2     1  UNL1       -0.2701
      8 C          62.2257   88.2572   11.8480 C.2     1  UNL1        0.2471
      9 N          62.9093   86.9242   11.7713 N.am    1  UNL1       -0.3008
     10 H          63.8924   86.8754   11.7549 H       1  UNL1        0.1497
     11 C          62.0949   85.6656   11.7197 C.3     1  UNL1        0.0898
     12 C          62.6198   84.4065   12.3437 C.3     1  UNL1        0.0246
     13 C          63.0398   83.2577   11.4756 C.3     1  UNL1        0.0338
     14 C          63.5646   81.9987   12.0997 C.3     1  UNL1        0.1422
     15 O          63.6694   81.8886   13.5919 O.3     1  UNL1       -0.3538
     16 C          63.2494   83.0374   14.4601 C.3     1  UNL1        0.1422
     17 C          62.7246   84.2964   13.8360 C.3     1  UNL1        0.0338
     18 C          63.9721   88.8174   14.2219 C.3     1  UNL1        0.0226
     19 C          64.4157   87.4961   14.7763 C.3     1  UNL1        0.0047
     20 C          63.6306   88.4438   15.6339 C.3     1  UNL1        0.0047
     21 N          65.4830   93.2917   12.0546 N.pl3   1  UNL1       -0.2979
     22 H          65.4353   93.8768   12.8449 H       1  UNL1        0.1536
     23 C          66.3701   93.6589   10.9021 C.ar    1  UNL1        0.0499
     24 C          67.2729   92.6278   10.2923 C.ar    1  UNL1        0.0147
     25 C          68.1600   92.9950    9.1398 C.ar    1  UNL1        0.0018
     26 C          68.1443   94.3933    8.5971 C.ar    1  UNL1        0.0068
     27 C          67.2416   95.4243    9.2069 C.ar    1  UNL1        0.0358
     28 BR         67.2259   96.8227    8.6642 Br      1  UNL1       -0.0490
     29 C          66.3545   95.0571   10.3594 C.ar    1  UNL1        0.0213
@<TRIPOS>BOND
     1     7     8    2
     2     8     9   am
     3     9    11    1
     4    11    12    1
     5    12    13    1
     6    13    14    1
     7    14    15    1
     8    15    16    1
     9    16    17    1
    10     8     1    1
    11     1     2   ar
    12     2     3   ar
    13     3     4   ar
    14     4    21    1
    15    21    23    1
    16    23    24   ar
    17    24    25   ar
    18    25    26   ar
    19    26    27   ar
    20    27    28    1
    21    27    29   ar
    22     4     5   ar
    23     5     6   ar
    24     6    18    1
    25    18    19    1
    26    19    20    1
    27    17    12    1
    28     6     1   ar
    29    20    18    1
    30    29    23   ar
    31     9    10    1
    32    21    22    1
@<TRIPOS>MOLECULE
*****
 29 32 0 0 0
SMALL
GASTEIGER

@<TRIPOS>ATOM
      1 C          64.4316   90.1484   14.2833 C.ar    1  UNL1        0.0686
      2 C          65.4245   91.0090   15.0067 C.ar    1  UNL1        0.1045
      3 N          65.9109   92.2820   14.3799 N.ar    1  UNL1       -0.2290
      4 C          65.4044   92.6943   13.0295 C.ar    1  UNL1        0.1319
      5 C          64.4114   91.8337   12.3061 C.ar    1  UNL1        0.0303
      6 C          63.9250   90.5607   12.9330 C.ar    1  UNL1       -0.0138
      7 O          62.8183   88.9096   15.8997 O.2     1  UNL1       -0.2701
      8 C          63.9452   88.8755   14.9102 C.2     1  UNL1        0.2471
      9 N          64.5856   87.5684   14.5476 N.am    1  UNL1       -0.3008
     10 H          65.3252   87.5460   13.8981 H       1  UNL1        0.1497
     11 C          64.0992   86.2955   15.1744 C.3     1  UNL1        0.0898
     12 C          63.8086   85.1000   14.3162 C.3     1  UNL1        0.0246
     13 C          64.0693   83.7191   14.8405 C.3     1  UNL1        0.0338
     14 C          63.7786   82.5238   13.9822 C.3     1  UNL1        0.1422
     15 O          63.2273   82.7094   12.5996 O.3     1  UNL1       -0.3538
     16 C          62.9666   84.0903   12.0753 C.3     1  UNL1        0.1422
     17 C          63.2572   85.2856   12.9336 C.3     1  UNL1        0.0338
     18 C          62.9320   89.7001   12.2096 C.3     1  UNL1        0.0226
     19 C          61.5263   89.4393   11.7559 C.3     1  UNL1        0.0047
     20 C          62.6180   88.4703   11.4103 C.3     1  UNL1        0.0047
     21 N          65.8908   93.9673   12.4026 N.pl3   1  UNL1       -0.2979
     22 H          65.7353   94.8286   12.8533 H       1  UNL1        0.1536
     23 C          66.6140   93.9278   11.0891 C.ar    1  UNL1        0.0499
     24 C          67.3254   92.6783   10.6618 C.ar    1  UNL1        0.0147
     25 C          68.0486   92.6389    9.3483 C.ar    1  UNL1        0.0018
     26 C          68.0604   93.8490    8.4620 C.ar    1  UNL1        0.0068
     27 C          67.3490   95.0985    8.8892 C.ar    1  UNL1        0.0358
     28 BR         67.3608   96.3086    8.0030 Br      1  UNL1       -0.0490
     29 C          66.6258   95.1379   10.2028 C.ar    1  UNL1        0.0213
@<TRIPOS>BOND
     1     7     8    2
     2     8     9   am
     3     9    11    1
     4    11    12    1
     5    12    13    1
     6    13    14    1
     7    14    15    1
     8    15    16    1
     9    16    17    1
    10     8     1    1
    11     1     2   ar
    12     2     3   ar
    13     3     4   ar
    14     4    21    1
    15    21    23    1
    16    23    24   ar
    17    24    25   ar
    18    25    26   ar
    19    26    27   ar
    20    27    28    1
    21    27    29   ar
    22     4     5   ar
    23     5     6   ar
    24     6    18    1
    25    18    19    1
    26    19    20    1
    27    17    12    1
    28     6     1   ar
    29    20    18    1
    30    29    23   ar
    31     9    10    1
    32    21    22    1
@<TRIPOS>MOLECULE
*****
 29 32 0 0 0
SMALL
GASTEIGER

@<TRIPOS>ATOM
      1 C          63.5616   89.1850   12.6552 C.ar    1  UNL1        0.0686
      2 C          63.0064   87.9566   11.9973 C.ar    1  UNL1        0.1045
      3 N          63.1155   86.6257   12.6804 N.ar    1  UNL1       -0.2290
      4 C          63.7798   86.5231   14.0214 C.ar    1  UNL1        0.1319
      5 C          64.3349   87.7515   14.6793 C.ar    1  UNL1        0.0303
      6 C          64.2258   89.0825   13.9962 C.ar    1  UNL1       -0.0138
      7 O          62.1114   91.0279   11.5369 O.2     1  UNL1       -0.2701
      8 C          63.4525   90.5160   11.9722 C.2     1  UNL1        0.2471
      9 N          64.6845   91.3351   11.7244 N.am    1  UNL1       -0.3008
     10 H          65.5646   90.9991   12.0101 H       1  UNL1        0.1497
     11 C          64.5754   92.6661   11.0414 C.3     1  UNL1        0.0898
     12 C          65.8074   93.3453   10.5209 C.3     1  UNL1        0.0246
     13 C          67.0122   92.5322   10.1504 C.3     1  UNL1        0.0338
     14 C          68.2442   93.2114    9.6300 C.3     1  UNL1        0.1422
     15 O          68.2714   94.7036    9.4801 O.3     1  UNL1       -0.3538
     16 C          67.0666   95.5167    9.8507 C.3     1  UNL1        0.1422
     17 C          65.8346   94.8375   10.3711 C.3     1  UNL1        0.0338
     18 C          64.7809   90.3109   14.6541 C.3     1  UNL1        0.0226
     19 C          64.6263   91.4525   15.6147 C.3     1  UNL1        0.0047
     20 C          65.8970   91.2969   14.8331 C.3     1  UNL1        0.0047
     21 N          63.8889   85.1921   14.7044 N.pl3   1  UNL1       -0.2979
     22 H          64.1568   85.1449   15.6506 H       1  UNL1        0.1536
     23 C          63.5898   83.9331   13.9459 C.ar    1  UNL1        0.0499
     24 C          64.4078   83.5705   12.7420 C.ar    1  UNL1        0.0147
     25 C          64.1088   82.3115   11.9835 C.ar    1  UNL1        0.0018
     26 C          62.9917   81.4150   12.4288 C.ar    1  UNL1        0.0068
     27 C          62.1737   81.7775   13.6327 C.ar    1  UNL1        0.0358
     28 BR         61.0566   80.8810   14.0782 Br      1  UNL1       -0.0490
     29 C          62.4728   83.0365   14.3913 C.ar    1  UNL1        0.0213
@<TRIPOS>BOND
     1     7     8    2
     2     8     9   am
     3     9    11    1
     4    11    12    1
     5    12    13    1
     6    13    14    1
     7    14    15    1
     8    15    16    1
     9    16    17    1
    10     8     1    1
    11     1     2   ar
    12     2     3   ar
    13     3     4   ar
    14     4    21    1
    15    21    23    1
    16    23    24   ar
    17    24    25   ar
    18    25    26   ar
    19    26    27   ar
    20    27    28    1
    21    27    29   ar
    22     4     5   ar
    23     5     6   ar
    24     6    18    1
    25    18    19    1
    26    19    20    1
    27    17    12    1
    28     6     1   ar
    29    20    18    1
    30    29    23   ar
    31     9    10    1
    32    21    22    1
@<TRIPOS>MOLECULE
*****
 29 32 0 0 0
SMALL
GASTEIGER

@<TRIPOS>ATOM
      1 C          61.1628   88.9715   10.4097 C.ar    1  UNL1        0.0686
      2 C          61.0207   90.2736   11.1408 C.ar    1  UNL1        0.1045
      3 N          61.9224   90.5864   12.2978 N.ar    1  UNL1       -0.2290
      4 C          62.9665   89.5972   12.7239 C.ar    1  UNL1        0.1319
      5 C          63.1086   88.2951   11.9929 C.ar    1  UNL1        0.0303
      6 C          62.2067   87.9823   10.8358 C.ar    1  UNL1       -0.0138
      7 O          59.3670   87.4553    9.3026 O.2     1  UNL1       -0.2701
      8 C          60.2610   88.6586    9.2527 C.2     1  UNL1        0.2471
      9 N          60.2533   89.5492    8.0456 N.am    1  UNL1       -0.3008
     10 H          60.8401   90.3391    8.0129 H       1  UNL1        0.1497
     11 C          59.3515   89.2364    6.8886 C.3     1  UNL1        0.0898
     12 C          59.0351   90.2970    5.8761 C.3     1  UNL1        0.0246
     13 C          60.1453   90.9843    5.1379 C.3     1  UNL1        0.0338
     14 C          59.8288   92.0449    4.1255 C.3     1  UNL1        0.1422
     15 O          58.4021   92.4181    3.8513 O.3     1  UNL1       -0.3538
     16 C          57.2919   91.7309    4.5895 C.3     1  UNL1        0.1422
     17 C          57.6084   90.6703    5.6019 C.3     1  UNL1        0.0338
     18 C          62.3489   86.6802   10.1048 C.3     1  UNL1        0.0226
     19 C          62.5794   85.9249    8.8295 C.3     1  UNL1        0.0047
     20 C          62.3646   85.1803   10.1139 C.3     1  UNL1        0.0047
     21 N          63.8682   89.9100   13.8810 N.pl3   1  UNL1       -0.2979
     22 H          63.8355   89.3563   14.6944 H       1  UNL1        0.1536
     23 C          64.8199   91.0665   13.7989 C.ar    1  UNL1        0.0499
     24 C          64.8893   91.8935   12.5494 C.ar    1  UNL1        0.0147
     25 C          65.8409   93.0500   12.4673 C.ar    1  UNL1        0.0018
     26 C          66.7233   93.3795   13.6346 C.ar    1  UNL1        0.0068
     27 C          66.6540   92.5526   14.8841 C.ar    1  UNL1        0.0358
     28 BR         67.5364   92.8821   16.0515 Br      1  UNL1       -0.0490
     29 C          65.7023   91.3960   14.9662 C.ar    1  UNL1        0.0213
@<TRIPOS>BOND
     1     7     8    2
     2     8     9   am
     3     9    11    1
     4    11    12    1
     5    12    13    1
     6    13    14    1
     7    14    15    1
     8    15    16    1
     9    16    17    1
    10     8     1    1
    11     1     2   ar
    12     2     3   ar
    13     3     4   ar
    14     4    21    1
    15    21    23    1
    16    23    24   ar
    17    24    25   ar
    18    25    26   ar
    19    26    27   ar
    20    27    28    1
    21    27    29   ar
    22     4     5   ar
    23     5     6   ar
    24     6    18    1
    25    18    19    1
    26    19    20    1
    27    17    12    1
    28     6     1   ar
    29    20    18    1
    30    29    23   ar
    31     9    10    1
    32    21    22    1
@<TRIPOS>MOLECULE
*****
 29 32 0 0 0
SMALL
GASTEIGER

@<TRIPOS>ATOM
      1 C          63.5870   88.9529   12.9439 C.ar    1  UNL1        0.0686
      2 C          64.2159   88.7985   14.2969 C.ar    1  UNL1        0.1045
      3 N          64.3604   87.4353   14.9057 N.ar    1  UNL1       -0.2290
      4 C          63.8760   86.2263   14.1615 C.ar    1  UNL1        0.1319
      5 C          63.2471   86.3807   12.8085 C.ar    1  UNL1        0.0303
      6 C          63.1026   87.7440   12.1997 C.ar    1  UNL1       -0.0138
      7 O          62.0791   90.8560   12.0196 O.2     1  UNL1       -0.2701
      8 C          63.4425   90.3161   12.3351 C.2     1  UNL1        0.2471
      9 N          64.6616   91.1396   12.0418 N.am    1  UNL1       -0.3008
     10 H          65.5564   90.7853   12.2489 H       1  UNL1        0.1497
     11 C          64.5171   92.5028   11.4330 C.3     1  UNL1        0.0898
     12 C          65.7045   93.1762   10.8111 C.3     1  UNL1        0.0246
     13 C          65.7568   94.6726   10.7223 C.3     1  UNL1        0.0338
     14 C          66.9442   95.3459   10.1004 C.3     1  UNL1        0.1422
     15 O          68.0792   94.5228    9.5674 O.3     1  UNL1       -0.3538
     16 C          68.0269   93.0264    9.6562 C.3     1  UNL1        0.1422
     17 C          66.8396   92.3531   10.2781 C.3     1  UNL1        0.0338
     18 C          62.4738   87.8984   10.8466 C.3     1  UNL1        0.0226
     19 C          62.1359   87.3329    9.4990 C.3     1  UNL1        0.0047
     20 C          61.7224   88.7312    9.8508 C.3     1  UNL1        0.0047
     21 N          64.0204   84.8631   14.7703 N.pl3   1  UNL1       -0.2979
     22 H          64.3804   84.7666   15.6815 H       1  UNL1        0.1536
     23 C          63.6164   83.6469   13.9908 C.ar    1  UNL1        0.0499
     24 C          64.3812   83.2561   12.7610 C.ar    1  UNL1        0.0147
     25 C          63.9771   82.0399   11.9815 C.ar    1  UNL1        0.0018
     26 C          62.8084   81.2145   12.4317 C.ar    1  UNL1        0.0068
     27 C          62.0437   81.6054   13.6615 C.ar    1  UNL1        0.0358
     28 BR         60.8748   80.7800   14.1118 Br      1  UNL1       -0.0490
     29 C          62.4477   82.8216   14.4410 C.ar    1  UNL1        0.0213
@<TRIPOS>BOND
     1     7     8    2
     2     8     9   am
     3     9    11    1
     4    11    12    1
     5    12    13    1
     6    13    14    1
     7    14    15    1
     8    15    16    1
     9    16    17    1
    10     8     1    1
    11     1     2   ar
    12     2     3   ar
    13     3     4   ar
    14     4    21    1
    15    21    23    1
    16    23    24   ar
    17    24    25   ar
    18    25    26   ar
    19    26    27   ar
    20    27    28    1
    21    27    29   ar
    22     4     5   ar
    23     5     6   ar
    24     6    18    1
    25    18    19    1
    26    19    20    1
    27    17    12    1
    28     6     1   ar
    29    20    18    1
    30    29    23   ar
    31     9    10    1
    32    21    22    1
@<TRIPOS>MOLECULE
*****
 29 32 0 0 0
SMALL
GASTEIGER

@<TRIPOS>ATOM
      1 C          62.8001   88.8166   11.9274 C.ar    1  UNL1        0.0686
      2 C          63.8194   89.0707   12.9981 C.ar    1  UNL1        0.1045
      3 N          64.5048   90.4024   13.0803 N.ar    1  UNL1       -0.2290
      4 C          64.1708   91.4801   12.0918 C.ar    1  UNL1        0.1319
      5 C          63.1515   91.2260   11.0211 C.ar    1  UNL1        0.0303
      6 C          62.4661   89.8942   10.9389 C.ar    1  UNL1       -0.0138
      7 O          60.6191   87.4154   11.7546 O.2     1  UNL1       -0.2701
      8 C          62.1147   87.4849   11.8451 C.2     1  UNL1        0.2471
      9 N          62.9251   86.2226   11.8533 N.am    1  UNL1       -0.3008
     10 H          63.9067   86.2681   11.9127 H       1  UNL1        0.1497
     11 C          62.2397   84.8909   11.7711 C.3     1  UNL1        0.0898
     12 C          62.7141   83.7494   12.6209 C.3     1  UNL1        0.0246
     13 C          63.2570   84.0120   13.9943 C.3     1  UNL1        0.0338
     14 C          63.7314   82.8706   14.8440 C.3     1  UNL1        0.1422
     15 O          63.6628   81.4666   14.3204 O.3     1  UNL1       -0.3538
     16 C          63.1199   81.2041   12.9470 C.3     1  UNL1        0.1422
     17 C          62.6455   82.3455   12.0973 C.3     1  UNL1        0.0338
     18 C          61.4468   89.6402    9.8682 C.3     1  UNL1        0.0226
     19 C          60.1772   90.0218    9.1664 C.3     1  UNL1        0.0047
     20 C          60.9509   88.8185    8.7155 C.3     1  UNL1        0.0047
     21 N          64.8562   92.8118   12.1741 N.pl3   1  UNL1       -0.2979
     22 H          64.6149   93.4464   12.8870 H       1  UNL1        0.1536
     23 C          65.9092   93.1767   11.1701 C.ar    1  UNL1        0.0499
     24 C          66.9171   92.1545   10.7352 C.ar    1  UNL1        0.0147
     25 C          67.9701   92.5194    9.7312 C.ar    1  UNL1        0.0018
     26 C          68.0152   93.9064    9.1620 C.ar    1  UNL1        0.0068
     27 C          67.0073   94.9286    9.5969 C.ar    1  UNL1        0.0358
     28 BR         67.0523   96.3158    9.0278 Br      1  UNL1       -0.0490
     29 C          65.9543   94.5637   10.6009 C.ar    1  UNL1        0.0213
@<TRIPOS>BOND
     1     7     8    2
     2     8     9   am
     3     9    11    1
     4    11    12    1
     5    12    13    1
     6    13    14    1
     7    14    15    1
     8    15    16    1
     9    16    17    1
    10     8     1    1
    11     1     2   ar
    12     2     3   ar
    13     3     4   ar
    14     4    21    1
    15    21    23    1
    16    23    24   ar
    17    24    25   ar
    18    25    26   ar
    19    26    27   ar
    20    27    28    1
    21    27    29   ar
    22     4     5   ar
    23     5     6   ar
    24     6    18    1
    25    18    19    1
    26    19    20    1
    27    17    12    1
    28     6     1   ar
    29    20    18    1
    30    29    23   ar
    31     9    10    1
    32    21    22    1
@<TRIPOS>MOLECULE
*****
 29 32 0 0 0
SMALL
GASTEIGER

@<TRIPOS>ATOM
      1 C          60.5295   87.4911    9.1831 C.ar    1  UNL1        0.0686
      2 C          60.4978   88.2268   10.4899 C.ar    1  UNL1        0.1045
      3 N          61.3566   87.7670   11.6305 N.ar    1  UNL1       -0.2290
      4 C          62.2472   86.5715   11.4643 C.ar    1  UNL1        0.1319
      5 C          62.2790   85.8358   10.1575 C.ar    1  UNL1        0.0303
      6 C          61.4201   86.2956    9.0169 C.ar    1  UNL1       -0.0138
      7 O          58.5451   87.0872    7.5556 O.2     1  UNL1       -0.2701
      8 C          59.6707   87.9509    8.0425 C.2     1  UNL1        0.2471
      9 N          59.9375   89.2744    7.3888 N.am    1  UNL1       -0.3008
     10 H          60.6763   89.8412    7.7084 H       1  UNL1        0.1497
     11 C          59.0787   89.7342    6.2482 C.3     1  UNL1        0.0898
     12 C          59.6208   90.7114    5.2476 C.3     1  UNL1        0.0246
     13 C          61.0784   90.6920    4.8940 C.3     1  UNL1        0.0338
     14 C          61.6205   91.6692    3.8935 C.3     1  UNL1        0.1422
     15 O          60.7050   92.6658    3.2464 O.3     1  UNL1       -0.3538
     16 C          59.2474   92.6852    3.6000 C.3     1  UNL1        0.1422
     17 C          58.7053   91.7080    4.6006 C.3     1  UNL1        0.0338
     18 C          61.4519   85.5599    7.7101 C.3     1  UNL1        0.0226
     19 C          60.7305   84.9473    6.5464 C.3     1  UNL1        0.0047
     20 C          62.2283   84.8984    6.6103 C.3     1  UNL1        0.0047
     21 N          63.1060   86.1117   12.6049 N.pl3   1  UNL1       -0.2979
     22 H          63.7873   86.7141   12.9821 H       1  UNL1        0.1536
     23 C          62.9269   84.7341   13.1708 C.ar    1  UNL1        0.0499
     24 C          62.7292   84.5492   14.6461 C.ar    1  UNL1        0.0147
     25 C          62.5501   83.1716   15.2120 C.ar    1  UNL1        0.0018
     26 C          62.5687   81.9790   14.3025 C.ar    1  UNL1        0.0068
     27 C          62.7664   82.1639   12.8272 C.ar    1  UNL1        0.0358
     28 BR         62.7850   80.9712   11.9176 Br      1  UNL1       -0.0490
     29 C          62.9455   83.5415   12.2613 C.ar    1  UNL1        0.0213
@<TRIPOS>BOND
     1     7     8    2
     2     8     9   am
     3     9    11    1
     4    11    12    1
     5    12    13    1
     6    13    14    1
     7    14    15    1
     8    15    16    1
     9    16    17    1
    10     8     1    1
    11     1     2   ar
    12     2     3   ar
    13     3     4   ar
    14     4    21    1
    15    21    23    1
    16    23    24   ar
    17    24    25   ar
    18    25    26   ar
    19    26    27   ar
    20    27    28    1
    21    27    29   ar
    22     4     5   ar
    23     5     6   ar
    24     6    18    1
    25    18    19    1
    26    19    20    1
    27    17    12    1
    28     6     1   ar
    29    20    18    1
    30    29    23   ar
    31     9    10    1
    32    21    22    1
@<TRIPOS>MOLECULE
*****
 29 32 0 0 0
SMALL
GASTEIGER

@<TRIPOS>ATOM
      1 C          63.3672   89.9974   11.6552 C.ar    1  UNL1        0.0686
      2 C          62.7927   89.8124   10.2820 C.ar    1  UNL1        0.1045
      3 N          62.2478   88.4769    9.8706 N.ar    1  UNL1       -0.2290
      4 C          62.2775   87.3261   10.8324 C.ar    1  UNL1        0.1319
      5 C          62.8520   87.5111   12.2056 C.ar    1  UNL1        0.0303
      6 C          63.3969   88.8467   12.6170 C.ar    1  UNL1       -0.0138
      7 O          63.5377   91.9185   13.3959 O.2     1  UNL1       -0.2701
      8 C          63.9121   91.3330   12.0666 C.2     1  UNL1        0.2471
      9 N          64.8313   92.0831   11.1487 N.am    1  UNL1       -0.3008
     10 H          65.0770   91.6987   10.2763 H       1  UNL1        0.1497
     11 C          65.3762   93.4186   11.5601 C.3     1  UNL1        0.0898
     12 C          66.0990   94.2736   10.5618 C.3     1  UNL1        0.0246
     13 C          65.8756   95.7567   10.5433 C.3     1  UNL1        0.0338
     14 C          66.5985   96.6116    9.5450 C.3     1  UNL1        0.1422
     15 O          67.5448   95.9834    8.5653 O.3     1  UNL1       -0.3538
     16 C          67.7682   94.5003    8.5839 C.3     1  UNL1        0.1422
     17 C          67.0453   93.6454    9.5821 C.3     1  UNL1        0.0338
     18 C          63.9715   89.0317   13.9902 C.3     1  UNL1        0.0226
     19 C          65.1257   89.3924   14.8776 C.3     1  UNL1        0.0047
     20 C          63.8124   88.9912   15.4811 C.3     1  UNL1        0.0047
     21 N          61.7327   85.9905   10.4210 N.pl3   1  UNL1       -0.2979
     22 H          60.8676   85.9344    9.9542 H       1  UNL1        0.1536
     23 C          62.5057   84.7405   10.7206 C.ar    1  UNL1        0.0499
     24 C          63.4660   84.1915    9.7075 C.ar    1  UNL1        0.0147
     25 C          64.2391   82.9415   10.0072 C.ar    1  UNL1        0.0018
     26 C          64.0519   82.2405   11.3200 C.ar    1  UNL1        0.0068
     27 C          63.0916   82.7895   12.3331 C.ar    1  UNL1        0.0358
     28 BR         62.9044   82.0884   13.6460 Br      1  UNL1       -0.0490
     29 C          62.3185   84.0395   12.0334 C.ar    1  UNL1        0.0213
@<TRIPOS>BOND
     1     7     8    2
     2     8     9   am
     3     9    11    1
     4    11    12    1
     5    12    13    1
     6    13    14    1
     7    14    15    1
     8    15    16    1
     9    16    17    1
    10     8     1    1
    11     1     2   ar
    12     2     3   ar
    13     3     4   ar
    14     4    21    1
    15    21    23    1
    16    23    24   ar
    17    24    25   ar
    18    25    26   ar
    19    26    27   ar
    20    27    28    1
    21    27    29   ar
    22     4     5   ar
    23     5     6   ar
    24     6    18    1
    25    18    19    1
    26    19    20    1
    27    17    12    1
    28     6     1   ar
    29    20    18    1
    30    29    23   ar
    31     9    10    1
    32    21    22    1
@<TRIPOS>MOLECULE
*****
 29 32 0 0 0
SMALL
GASTEIGER

@<TRIPOS>ATOM
      1 C          65.4926   91.8872   12.6403 C.ar    1  UNL1        0.0686
      2 C          64.3494   91.2648   11.8948 C.ar    1  UNL1        0.1045
      3 N          63.6179   90.0953   12.4839 N.ar    1  UNL1       -0.2290
      4 C          64.0295   89.5481   13.8186 C.ar    1  UNL1        0.1319
      5 C          65.1727   90.1705   14.5641 C.ar    1  UNL1        0.0303
      6 C          65.9043   91.3401   13.9749 C.ar    1  UNL1       -0.0138
      7 O          67.4626   92.8328   11.2349 O.2     1  UNL1       -0.2701
      8 C          66.2242   93.0567   12.0512 C.2     1  UNL1        0.2471
      9 N          65.7173   94.4501   12.2783 N.am    1  UNL1       -0.3008
     10 H          64.9045   94.5971   12.8140 H       1  UNL1        0.1497
     11 C          66.4489   95.6196   11.6892 C.3     1  UNL1        0.0898
     12 C          66.2500   95.9792   10.2465 C.3     1  UNL1        0.0246
     13 C          67.3811   95.8277    9.2730 C.3     1  UNL1        0.0338
     14 C          67.1822   96.1873    7.8305 C.3     1  UNL1        0.1422
     15 O          65.8523   96.6985    7.3614 O.3     1  UNL1       -0.3538
     16 C          64.7213   96.8501    8.3349 C.3     1  UNL1        0.1422
     17 C          64.9201   96.4904    9.7774 C.3     1  UNL1        0.0338
     18 C          67.0475   91.9625   14.7204 C.3     1  UNL1        0.0226
     19 C          67.5847   92.6352   15.9487 C.3     1  UNL1        0.0047
     20 C          68.4903   92.3677   14.7832 C.3     1  UNL1        0.0047
     21 N          63.2980   88.3787   14.4077 N.pl3   1  UNL1       -0.2979
     22 H          62.5188   88.5283   14.9906 H       1  UNL1        0.1536
     23 C          63.7536   86.9811   14.1087 C.ar    1  UNL1        0.0499
     24 C          64.8330   86.3507   14.9377 C.ar    1  UNL1        0.0147
     25 C          65.2886   84.9532   14.6388 C.ar    1  UNL1        0.0018
     26 C          64.6647   84.1861   13.5108 C.ar    1  UNL1        0.0068
     27 C          63.5853   84.8165   12.6818 C.ar    1  UNL1        0.0358
     28 BR         62.9614   84.0494   11.5538 Br      1  UNL1       -0.0490
     29 C          63.1297   86.2140   12.9808 C.ar    1  UNL1        0.0213
@<TRIPOS>BOND
     1     7     8    2
     2     8     9   am
     3     9    11    1
     4    11    12    1
     5    12    13    1
     6    13    14    1
     7    14    15    1
     8    15    16    1
     9    16    17    1
    10     8     1    1
    11     1     2   ar
    12     2     3   ar
    13     3     4   ar
    14     4    21    1
    15    21    23    1
    16    23    24   ar
    17    24    25   ar
    18    25    26   ar
    19    26    27   ar
    20    27    28    1
    21    27    29   ar
    22     4     5   ar
    23     5     6   ar
    24     6    18    1
    25    18    19    1
    26    19    20    1
    27    17    12    1
    28     6     1   ar
    29    20    18    1
    30    29    23   ar
    31     9    10    1
    32    21    22    1
