@<TRIPOS>MOLECULE
*****
 42 47 0 0 0
SMALL
GASTEIGER

@<TRIPOS>ATOM
      1 C          58.6442   86.6130    7.6670 C.3     1  UNL1        0.0311
      2 C          59.2180   87.9818    7.4496 C.ar    1  UNL1       -0.0192
      3 C          58.7222   88.8318    6.3176 C.ar    1  UNL1        0.0105
      4 C          59.2961   90.2006    6.1003 C.ar    1  UNL1        0.0513
      5 C          60.3657   90.7193    7.0151 C.ar    1  UNL1        0.0147
      6 C          60.8615   89.8693    8.1473 C.ar    1  UNL1        0.0025
      7 C          60.2876   88.5005    8.3645 C.ar    1  UNL1        0.0138
      8 C          60.7833   87.6504    9.4966 C.ar    1  UNL1        0.0843
      9 C          60.3632   87.9560   10.9038 C.ar    1  UNL1        0.1179
     10 N          60.8589   87.1060   12.0358 N.ar    1  UNL1       -0.2248
     11 C          61.7748   85.9503   11.7608 C.ar    1  UNL1        0.1633
     12 C          62.1949   85.6447   10.3536 C.ar    1  UNL1        0.1797
     13 N          63.0816   84.5796    9.7798 N.ar    1  UNL1       -0.2222
     14 C          63.1339   84.7714    8.2931 C.ar    1  UNL1        0.1196
     15 C          62.2795   85.9550    7.9480 C.ar    1  UNL1        0.1023
     16 N          61.6991   86.4948    9.2215 N.ar    1  UNL1       -0.2851
     17 N          62.2704   85.1002   12.8930 N.pl3   1  UNL1       -0.3173
     18 H          61.8366   84.2383   13.0880 H       1  UNL1        0.1482
     19 C          63.4271   85.5635   13.7280 C.3     1  UNL1        0.0706
     20 C          64.5867   85.2531   14.6275 C.3     1  UNL1        0.0212
     21 C          64.2711   86.6765   14.2749 C.3     1  UNL1        0.0212
     22 N          58.8004   91.0506    4.9682 N.am    1  UNL1       -0.2680
     23 C          59.7785   91.7442    4.0668 C.2     1  UNL1        0.3092
     24 O          61.2523   91.5876    4.2976 O.2     1  UNL1       -0.2521
     25 N          59.2828   92.5942    2.9348 N.am    1  UNL1       -0.2533
     26 H          57.8330   91.1534    4.8168 H       1  UNL1        0.1564
     27 H          58.3154   92.6969    2.7833 H       1  UNL1        0.1578
     28 C          60.2609   93.2877    2.0334 C.ar    1  UNL1        0.1380
     29 C          61.6858   93.6175    2.3662 C.ar    1  UNL1        0.0509
     30 C          62.2913   94.3068    1.1795 C.ar    1  UNL1        0.0810
     31 N          61.2406   94.4030    0.1133 N.ar    1  UNL1       -0.1683
     32 N          59.9857   93.7732    0.6411 N.ar    1  UNL1       -0.2162
     33 C          58.6842   93.6504   -0.0944 C.ar    1  UNL1        0.0842
     34 C          57.8942   94.8801   -0.4312 C.ar    1  UNL1        0.0192
     35 C          56.5926   94.7573   -1.1667 C.ar    1  UNL1        0.0015
     36 C          56.0811   93.4047   -1.5654 C.ar    1  UNL1        0.0001
     37 C          56.8712   92.1749   -1.2286 C.ar    1  UNL1        0.0015
     38 C          58.1727   92.2977   -0.4931 C.ar    1  UNL1        0.0192
     39 C          63.7003   94.8113    1.0770 C.3     1  UNL1        0.0372
     40 C          64.2048   93.5176    1.6442 C.3     1  UNL1        0.0060
     41 C          63.1956   96.1050    0.5098 C.3     1  UNL1        0.0060
     42 C          65.1091   95.3158    0.9745 C.3     1  UNL1        0.0060
@<TRIPOS>BOND
     1     1     2    1
     2     2     3   ar
     3     3     4   ar
     4     4    22    1
     5    22    23   am
     6    23    24    2
     7    23    25   am
     8    25    28    1
     9    28    29   ar
    10    29    30   ar
    11    30    39    1
    12    39    40    1
    13    39    41    1
    14    39    42    1
    15    30    31   ar
    16    31    32   ar
    17    32    33    1
    18    33    34   ar
    19    34    35   ar
    20    35    36   ar
    21    36    37   ar
    22    37    38   ar
    23     4     5   ar
    24     5     6   ar
    25     6     7   ar
    26     7     8    1
    27     8     9   ar
    28     9    10   ar
    29    10    11   ar
    30    11    17    1
    31    17    19    1
    32    19    20    1
    33    20    21    1
    34    11    12   ar
    35    12    13   ar
    36    13    14   ar
    37    14    15   ar
    38    15    16   ar
    39     7     2   ar
    40    16     8   ar
    41    32    28   ar
    42    38    33   ar
    43    21    19    1
    44    16    12   ar
    45    22    26    1
    46    25    27    1
    47    17    18    1
@<TRIPOS>MOLECULE
*****
 42 47 0 0 0
SMALL
GASTEIGER

@<TRIPOS>ATOM
      1 C          63.0509   91.6300    2.7388 C.3     1  UNL1        0.0311
      2 C          61.6673   91.8287    3.2827 C.ar    1  UNL1       -0.0192
      3 C          61.2250   91.0745    4.5015 C.ar    1  UNL1        0.0105
      4 C          59.8412   91.2733    5.0454 C.ar    1  UNL1        0.0513
      5 C          58.8998   92.2263    4.3705 C.ar    1  UNL1        0.0147
      6 C          59.3421   92.9806    3.1516 C.ar    1  UNL1        0.0025
      7 C          60.7258   92.7818    2.6078 C.ar    1  UNL1        0.0138
      8 C          61.1681   93.5360    1.3889 C.ar    1  UNL1        0.0843
      9 C          62.3005   94.5152    1.4828 C.ar    1  UNL1        0.1179
     10 N          62.7429   95.2693    0.2641 N.ar    1  UNL1       -0.2248
     11 C          62.0528   95.0444   -1.0487 C.ar    1  UNL1        0.1633
     12 C          60.9204   94.0652   -1.1426 C.ar    1  UNL1        0.1797
     13 N          60.0564   93.6371   -2.2916 N.ar    1  UNL1       -0.2222
     14 C          59.0801   92.6183   -1.7829 C.ar    1  UNL1        0.1196
     15 C          59.3407   92.4167   -0.3195 C.ar    1  UNL1        0.1023
     16 N          60.4781   93.3110    0.0762 N.ar    1  UNL1       -0.2851
     17 N          62.4952   95.7986   -2.2675 N.pl3   1  UNL1       -0.3173
     18 H          61.8272   96.1345   -2.9080 H       1  UNL1        0.1482
     19 C          63.9554   96.0411   -2.5105 C.3     1  UNL1        0.0706
     20 C          65.1339   96.0504   -3.4384 C.3     1  UNL1        0.0212
     21 C          65.3060   96.4517   -2.0033 C.3     1  UNL1        0.0212
     22 N          59.3989   90.5191    6.2642 N.am    1  UNL1       -0.2680
     23 C          60.4004   90.1342    7.3125 C.2     1  UNL1        0.3092
     24 O          61.8442   90.5035    7.1420 O.2     1  UNL1       -0.2521
     25 N          59.9581   89.3800    8.5313 N.am    1  UNL1       -0.2533
     26 H          58.4513   90.2767    6.3761 H       1  UNL1        0.1564
     27 H          59.0105   89.1376    8.6432 H       1  UNL1        0.1578
     28 C          60.9596   88.9951    9.5797 C.ar    1  UNL1        0.1380
     29 C          61.3563   89.8227   10.7660 C.ar    1  UNL1        0.0509
     30 C          62.3820   89.0542   11.5452 C.ar    1  UNL1        0.0810
     31 N          62.6192   87.7515   10.8404 N.ar    1  UNL1       -0.1683
     32 N          61.7401   87.7150    9.6256 N.ar    1  UNL1       -0.2162
     33 C          61.6562   86.5950    8.6313 C.ar    1  UNL1        0.0842
     34 C          60.3596   86.3060    7.9348 C.ar    1  UNL1        0.0192
     35 C          60.2757   85.1860    6.9405 C.ar    1  UNL1        0.0015
     36 C          61.4885   84.3550    6.6427 C.ar    1  UNL1        0.0001
     37 C          62.7852   84.6440    7.3393 C.ar    1  UNL1        0.0015
     38 C          62.8691   85.7640    8.3336 C.ar    1  UNL1        0.0192
     39 C          63.0528   89.5085   12.8077 C.3     1  UNL1        0.0372
     40 C          62.6039   90.9145   12.5402 C.3     1  UNL1        0.0060
     41 C          63.5017   88.1024   13.0751 C.3     1  UNL1        0.0060
     42 C          63.7236   89.9627   14.0701 C.3     1  UNL1        0.0060
@<TRIPOS>BOND
     1     1     2    1
     2     2     3   ar
     3     3     4   ar
     4     4    22    1
     5    22    23   am
     6    23    24    2
     7    23    25   am
     8    25    28    1
     9    28    29   ar
    10    29    30   ar
    11    30    39    1
    12    39    40    1
    13    39    41    1
    14    39    42    1
    15    30    31   ar
    16    31    32   ar
    17    32    33    1
    18    33    34   ar
    19    34    35   ar
    20    35    36   ar
    21    36    37   ar
    22    37    38   ar
    23     4     5   ar
    24     5     6   ar
    25     6     7   ar
    26     7     8    1
    27     8     9   ar
    28     9    10   ar
    29    10    11   ar
    30    11    17    1
    31    17    19    1
    32    19    20    1
    33    20    21    1
    34    11    12   ar
    35    12    13   ar
    36    13    14   ar
    37    14    15   ar
    38    15    16   ar
    39     7     2   ar
    40    16     8   ar
    41    32    28   ar
    42    38    33   ar
    43    21    19    1
    44    16    12   ar
    45    22    26    1
    46    25    27    1
    47    17    18    1
@<TRIPOS>MOLECULE
*****
 42 47 0 0 0
SMALL
GASTEIGER

@<TRIPOS>ATOM
      1 C          62.5350   91.6512    3.1013 C.3     1  UNL1        0.0311
      2 C          61.1318   91.6747    3.6308 C.ar    1  UNL1       -0.0192
      3 C          60.8170   91.0341    4.9500 C.ar    1  UNL1        0.0105
      4 C          59.4137   91.0577    5.4795 C.ar    1  UNL1        0.0513
      5 C          58.3252   91.7220    4.6896 C.ar    1  UNL1        0.0147
      6 C          58.6399   92.3627    3.3703 C.ar    1  UNL1        0.0025
      7 C          60.0432   92.3391    2.8409 C.ar    1  UNL1        0.0138
      8 C          60.3580   92.9797    1.5216 C.ar    1  UNL1        0.0843
      9 C          60.4814   92.1352    0.2882 C.ar    1  UNL1        0.1179
     10 N          60.7962   92.7758   -1.0310 N.ar    1  UNL1       -0.2248
     11 C          60.9876   94.2611   -1.1169 C.ar    1  UNL1        0.1633
     12 C          60.8643   95.1057    0.1165 C.ar    1  UNL1        0.1797
     13 N          60.9989   96.5829    0.3390 N.ar    1  UNL1       -0.2222
     14 C          60.7674   96.8553    1.7958 C.ar    1  UNL1        0.1196
     15 C          60.4896   95.5463    2.4736 C.ar    1  UNL1        0.1023
     16 N          60.5495   94.4650    1.4358 N.ar    1  UNL1       -0.2851
     17 N          61.3024   94.9017   -2.4362 N.pl3   1  UNL1       -0.3173
     18 H          60.7522   95.6492   -2.7642 H       1  UNL1        0.1482
     19 C          62.4556   94.4032   -3.2558 C.3     1  UNL1        0.0706
     20 C          63.6673   94.6787   -4.0960 C.3     1  UNL1        0.0212
     21 C          63.2413   93.2643   -3.8351 C.3     1  UNL1        0.0212
     22 N          59.0989   90.4171    6.7986 N.am    1  UNL1       -0.2680
     23 C          60.2099   90.0395    7.7332 C.2     1  UNL1        0.3092
     24 O          61.6356   90.3026    7.3483 O.2     1  UNL1       -0.2521
     25 N          59.8951   89.3988    9.0524 N.am    1  UNL1       -0.2533
     26 H          58.1632   90.2444    7.0512 H       1  UNL1        0.1564
     27 H          58.9594   89.2261    9.3049 H       1  UNL1        0.1578
     28 C          61.0061   89.0212    9.9869 C.ar    1  UNL1        0.1380
     29 C          61.4747   89.8191   11.1674 C.ar    1  UNL1        0.0509
     30 C          62.6016   89.0705   11.8150 C.ar    1  UNL1        0.0810
     31 N          62.8296   87.8099   11.0348 N.ar    1  UNL1       -0.1683
     32 N          61.8435   87.7794    9.9049 N.ar    1  UNL1       -0.2162
     33 C          61.7169   86.6971    8.8741 C.ar    1  UNL1        0.0842
     34 C          62.9073   85.8558    8.5199 C.ar    1  UNL1        0.0192
     35 C          62.7807   84.7736    7.4890 C.ar    1  UNL1        0.0015
     36 C          61.4639   84.5325    6.8123 C.ar    1  UNL1        0.0001
     37 C          60.2736   85.3738    7.1665 C.ar    1  UNL1        0.0015
     38 C          60.4001   86.4561    8.1973 C.ar    1  UNL1        0.0192
     39 C          63.3664   89.5061   13.0298 C.3     1  UNL1        0.0372
     40 C          63.6177   88.0709   13.3861 C.3     1  UNL1        0.0060
     41 C          63.1151   90.9413   12.6733 C.3     1  UNL1        0.0060
     42 C          64.1312   89.9417   14.2444 C.3     1  UNL1        0.0060
@<TRIPOS>BOND
     1     1     2    1
     2     2     3   ar
     3     3     4   ar
     4     4    22    1
     5    22    23   am
     6    23    24    2
     7    23    25   am
     8    25    28    1
     9    28    29   ar
    10    29    30   ar
    11    30    39    1
    12    39    40    1
    13    39    41    1
    14    39    42    1
    15    30    31   ar
    16    31    32   ar
    17    32    33    1
    18    33    34   ar
    19    34    35   ar
    20    35    36   ar
    21    36    37   ar
    22    37    38   ar
    23     4     5   ar
    24     5     6   ar
    25     6     7   ar
    26     7     8    1
    27     8     9   ar
    28     9    10   ar
    29    10    11   ar
    30    11    17    1
    31    17    19    1
    32    19    20    1
    33    20    21    1
    34    11    12   ar
    35    12    13   ar
    36    13    14   ar
    37    14    15   ar
    38    15    16   ar
    39     7     2   ar
    40    16     8   ar
    41    32    28   ar
    42    38    33   ar
    43    21    19    1
    44    16    12   ar
    45    22    26    1
    46    25    27    1
    47    17    18    1
@<TRIPOS>MOLECULE
*****
 42 47 0 0 0
SMALL
GASTEIGER

@<TRIPOS>ATOM
      1 C          58.5999   86.9529    7.7149 C.3     1  UNL1        0.0311
      2 C          59.2413   88.2672    7.3815 C.ar    1  UNL1       -0.0192
      3 C          58.7108   89.0947    6.2485 C.ar    1  UNL1        0.0105
      4 C          59.3523   90.4091    5.9152 C.ar    1  UNL1        0.0513
      5 C          60.5242   90.8958    6.7150 C.ar    1  UNL1        0.0147
      6 C          61.0547   90.0683    7.8480 C.ar    1  UNL1        0.0025
      7 C          60.4133   88.7540    8.1813 C.ar    1  UNL1        0.0138
      8 C          60.9437   87.9264    9.3143 C.ar    1  UNL1        0.0843
      9 C          60.7063   86.4455    9.3367 C.ar    1  UNL1        0.1179
     10 N          61.2367   85.6180   10.4697 N.ar    1  UNL1       -0.2248
     11 C          62.0046   86.2713   11.5804 C.ar    1  UNL1        0.1633
     12 C          62.2420   87.7522   11.5580 C.ar    1  UNL1        0.1797
     13 N          62.9579   88.6683   12.5057 N.ar    1  UNL1       -0.2222
     14 C          62.8699   90.0621   11.9584 C.ar    1  UNL1        0.1196
     15 C          62.0997   90.0074   10.6724 C.ar    1  UNL1        0.1023
     16 N          61.7116   88.5798   10.4250 N.ar    1  UNL1       -0.2851
     17 N          62.5350   85.4436   12.7134 N.pl3   1  UNL1       -0.3173
     18 H          62.5428   85.8083   13.6279 H       1  UNL1        0.1482
     19 C          63.0536   84.0604   12.4532 C.3     1  UNL1        0.0706
     20 C          62.8058   82.5909   12.2824 C.3     1  UNL1        0.0212
     21 C          64.1997   83.1341   12.1731 C.3     1  UNL1        0.0212
     22 N          58.8219   91.2366    4.7822 N.am    1  UNL1       -0.2680
     23 C          59.7714   91.8973    3.8273 C.2     1  UNL1        0.3092
     24 O          61.2514   91.7305    4.0054 O.2     1  UNL1       -0.2521
     25 N          59.2410   92.7248    2.6943 N.am    1  UNL1       -0.2533
     26 H          57.8505   91.3461    4.6654 H       1  UNL1        0.1564
     27 H          58.2696   92.8344    2.5774 H       1  UNL1        0.1578
     28 C          60.1905   93.3856    1.7393 C.ar    1  UNL1        0.1380
     29 C          61.6310   93.7057    2.0083 C.ar    1  UNL1        0.0509
     30 C          62.1970   94.3601    0.7830 C.ar    1  UNL1        0.0810
     31 N          61.1063   94.4444   -0.2433 N.ar    1  UNL1       -0.1683
     32 N          59.8662   93.8421    0.3478 N.ar    1  UNL1       -0.2162
     33 C          58.5354   93.7182   -0.3331 C.ar    1  UNL1        0.0842
     34 C          58.0212   92.3674   -0.7345 C.ar    1  UNL1        0.0192
     35 C          56.6904   92.2435   -1.4154 C.ar    1  UNL1        0.0015
     36 C          55.8738   93.4703   -1.6950 C.ar    1  UNL1        0.0001
     37 C          56.3880   94.8211   -1.2937 C.ar    1  UNL1        0.0015
     38 C          57.7188   94.9450   -0.6128 C.ar    1  UNL1        0.0192
     39 C          63.6064   94.8451    0.6136 C.3     1  UNL1        0.0372
     40 C          63.1059   96.0296   -0.1586 C.3     1  UNL1        0.0060
     41 C          64.1067   93.6604    1.3860 C.3     1  UNL1        0.0060
     42 C          65.0157   95.3299    0.4443 C.3     1  UNL1        0.0060
@<TRIPOS>BOND
     1     1     2    1
     2     2     3   ar
     3     3     4   ar
     4     4    22    1
     5    22    23   am
     6    23    24    2
     7    23    25   am
     8    25    28    1
     9    28    29   ar
    10    29    30   ar
    11    30    39    1
    12    39    40    1
    13    39    41    1
    14    39    42    1
    15    30    31   ar
    16    31    32   ar
    17    32    33    1
    18    33    34   ar
    19    34    35   ar
    20    35    36   ar
    21    36    37   ar
    22    37    38   ar
    23     4     5   ar
    24     5     6   ar
    25     6     7   ar
    26     7     8    1
    27     8     9   ar
    28     9    10   ar
    29    10    11   ar
    30    11    17    1
    31    17    19    1
    32    19    20    1
    33    20    21    1
    34    11    12   ar
    35    12    13   ar
    36    13    14   ar
    37    14    15   ar
    38    15    16   ar
    39     7     2   ar
    40    16     8   ar
    41    32    28   ar
    42    38    33   ar
    43    21    19    1
    44    16    12   ar
    45    22    26    1
    46    25    27    1
    47    17    18    1
