@<TRIPOS>MOLECULE
*****
 19 20 0 0 0
SMALL
GASTEIGER

@<TRIPOS>ATOM
      1 C          66.1164   93.8367   12.0377 C.2     1  UNL1        0.4053
      2 O          66.8127   94.5610   13.1515 O.2     1  UNL1       -0.2262
      3 N          65.3479   92.5809   12.3246 N.am    1  UNL1       -0.2383
      4 C          64.5498   91.6142   11.5010 C.3     1  UNL1        0.1218
      5 C          64.2611   90.8049   12.7305 C.2     1  UNL1        0.0038
      6 C          63.4927   89.5491   13.0175 C.2     1  UNL1        0.0444
      7 C          65.0593   91.7716   13.5542 C.3     1  UNL1        0.1218
      8 C          62.7964   88.8248   11.9036 C.1     1  UNL1       -0.0582
      9 C          62.1001   88.1006   10.7898 C.1     1  UNL1       -0.0405
     10 C          61.4038   87.3762    9.6759 C.ar    1  UNL1        0.1224
     11 C          59.9410   87.6023    9.4333 C.ar    1  UNL1        0.0276
     12 C          59.2448   86.8780    8.3195 C.ar    1  UNL1        0.0034
     13 C          60.0114   85.9276    7.4483 C.ar    1  UNL1        0.0148
     14 C          61.4743   85.7015    7.6909 C.ar    1  UNL1        0.0600
     15 C          62.2409   84.7512    6.8196 C.3     1  UNL1        0.0521
     16 N          62.1705   86.4258    8.8047 N.ar    1  UNL1       -0.2414
     17 O          66.1887   94.3682   10.6369 O.3     1  UNL1       -0.4345
     18 C          67.8394   92.4829    9.9510 C.3     1  UNL1        0.0513
     19 C          67.1903   93.8060    9.6721 C.3     1  UNL1        0.2102
@<TRIPOS>BOND
     1    18    19    1
     2    19    17    1
     3    17     1    1
     4     1     2    2
     5     1     3   am
     6     3     4    1
     7     4     5    1
     8     5     6    2
     9     6     8    1
    10     8     9    3
    11     9    10    1
    12    10    11   ar
    13    11    12   ar
    14    12    13   ar
    15    13    14   ar
    16    14    15    1
    17    14    16   ar
    18     5     7    1
    19     7     3    1
    20    16    10   ar
@<TRIPOS>MOLECULE
*****
 19 20 0 0 0
SMALL
GASTEIGER

@<TRIPOS>ATOM
      1 C          66.2509   93.7274   12.9129 C.2     1  UNL1        0.4053
      2 O          67.0917   94.1603   14.0773 O.2     1  UNL1       -0.2262
      3 N          65.4829   92.4407   12.9796 N.am    1  UNL1       -0.2383
      4 C          64.5669   91.7027   12.0488 C.3     1  UNL1        0.1218
      5 C          64.3968   90.6209   13.0739 C.2     1  UNL1        0.0038
      6 C          63.6288   89.3342   13.1406 C.2     1  UNL1        0.0444
      7 C          65.3128   91.3589   14.0047 C.3     1  UNL1        0.1218
      8 C          62.7880   88.9013   11.9762 C.1     1  UNL1       -0.0582
      9 C          61.9473   88.4685   10.8119 C.1     1  UNL1       -0.0405
     10 C          61.1065   88.0356    9.6475 C.ar    1  UNL1        0.1224
     11 C          60.8464   86.5774    9.4112 C.ar    1  UNL1        0.0276
     12 C          60.0056   86.1446    8.2468 C.ar    1  UNL1        0.0034
     13 C          59.4250   87.1700    7.3187 C.ar    1  UNL1        0.0148
     14 C          59.6851   88.6282    7.5550 C.ar    1  UNL1        0.0600
     15 C          59.1045   89.6536    6.6269 C.3     1  UNL1        0.0521
     16 N          60.5259   89.0610    8.7194 N.ar    1  UNL1       -0.2414
     17 O          66.1781   94.5813   11.6818 O.3     1  UNL1       -0.4345
     18 C          67.3641   95.1147    9.4326 C.3     1  UNL1        0.0513
     19 C          66.8154   94.1146   10.4066 C.3     1  UNL1        0.2102
@<TRIPOS>BOND
     1    18    19    1
     2    19    17    1
     3    17     1    1
     4     1     2    2
     5     1     3   am
     6     3     4    1
     7     4     5    1
     8     5     6    2
     9     6     8    1
    10     8     9    3
    11     9    10    1
    12    10    11   ar
    13    11    12   ar
    14    12    13   ar
    15    13    14   ar
    16    14    15    1
    17    14    16   ar
    18     5     7    1
    19     7     3    1
    20    16    10   ar
@<TRIPOS>MOLECULE
*****
 19 20 0 0 0
SMALL
GASTEIGER

@<TRIPOS>ATOM
      1 C          62.5537   81.8728   13.1405 C.2     1  UNL1        0.4053
      2 O          62.2543   80.5670   13.8153 O.2     1  UNL1       -0.2262
      3 N          62.9034   83.0785   13.9614 N.am    1  UNL1       -0.2383
      4 C          63.2524   84.5050   13.6558 C.3     1  UNL1        0.1218
      5 C          63.3980   84.7836   15.1225 C.2     1  UNL1        0.0038
      6 C          63.7477   85.9892   15.9435 C.2     1  UNL1        0.0444
      7 C          63.0490   83.3571   15.4281 C.3     1  UNL1        0.1218
      8 C          64.0471   87.2950   15.2686 C.1     1  UNL1       -0.0582
      9 C          64.3464   88.6008   14.5938 C.1     1  UNL1       -0.0405
     10 C          64.6459   89.9065   13.9189 C.ar    1  UNL1        0.1224
     11 C          63.8800   90.3107   12.6942 C.ar    1  UNL1        0.0276
     12 C          64.1795   91.6165   12.0194 C.ar    1  UNL1        0.0034
     13 C          65.2447   92.5180   12.5694 C.ar    1  UNL1        0.0148
     14 C          66.0105   92.1138   13.7941 C.ar    1  UNL1        0.0600
     15 C          67.0757   93.0154   14.3441 C.3     1  UNL1        0.0521
     16 N          65.7111   90.8081   14.4689 N.ar    1  UNL1       -0.2414
     17 O          62.5033   81.9729   11.6447 O.3     1  UNL1       -0.4345
     18 C          63.9564   83.3720   10.0072 C.3     1  UNL1        0.0513
     19 C          63.7702   82.1536   10.8620 C.3     1  UNL1        0.2102
@<TRIPOS>BOND
     1    18    19    1
     2    19    17    1
     3    17     1    1
     4     1     2    2
     5     1     3   am
     6     3     4    1
     7     4     5    1
     8     5     6    2
     9     6     8    1
    10     8     9    3
    11     9    10    1
    12    10    11   ar
    13    11    12   ar
    14    12    13   ar
    15    13    14   ar
    16    14    15    1
    17    14    16   ar
    18     5     7    1
    19     7     3    1
    20    16    10   ar
@<TRIPOS>MOLECULE
*****
 19 20 0 0 0
SMALL
GASTEIGER

@<TRIPOS>ATOM
      1 C          63.8622   91.0784   15.7477 C.2     1  UNL1        0.4053
      2 O          63.8455   92.1741   16.7721 O.2     1  UNL1       -0.2262
      3 N          63.5307   89.6716   16.1488 N.am    1  UNL1       -0.2383
      4 C          63.4453   88.3566   15.4323 C.3     1  UNL1        0.1218
      5 C          63.0620   87.6820   16.7162 C.2     1  UNL1        0.0038
      6 C          62.7306   86.2752   17.1173 C.2     1  UNL1        0.0444
      7 C          63.1475   88.9971   17.4326 C.3     1  UNL1        0.1218
      8 C          62.7472   85.1795   16.0929 C.1     1  UNL1       -0.0582
      9 C          62.7638   84.0839   15.0686 C.1     1  UNL1       -0.0405
     10 C          62.7804   82.9882   14.0442 C.ar    1  UNL1        0.1224
     11 C          62.1444   81.6649   14.3511 C.ar    1  UNL1        0.0276
     12 C          62.1610   80.5693   13.3267 C.ar    1  UNL1        0.0034
     13 C          62.8137   80.7970   11.9955 C.ar    1  UNL1        0.0148
     14 C          63.4498   82.1203   11.6887 C.ar    1  UNL1        0.0600
     15 C          64.1025   82.3480   10.3574 C.3     1  UNL1        0.0521
     16 N          63.4332   83.2159   12.7130 N.ar    1  UNL1       -0.2414
     17 O          64.2102   91.3897   14.3222 O.3     1  UNL1       -0.4345
     18 C          66.7716   91.6065   14.6996 C.3     1  UNL1        0.0513
     19 C          65.6159   91.1989   13.8346 C.3     1  UNL1        0.2102
@<TRIPOS>BOND
     1    18    19    1
     2    19    17    1
     3    17     1    1
     4     1     2    2
     5     1     3   am
     6     3     4    1
     7     4     5    1
     8     5     6    2
     9     6     8    1
    10     8     9    3
    11     9    10    1
    12    10    11   ar
    13    11    12   ar
    14    12    13   ar
    15    13    14   ar
    16    14    15    1
    17    14    16   ar
    18     5     7    1
    19     7     3    1
    20    16    10   ar
@<TRIPOS>MOLECULE
*****
 19 20 0 0 0
SMALL
GASTEIGER

@<TRIPOS>ATOM
      1 C          62.5674   81.8615   13.3929 C.2     1  UNL1        0.4053
      2 O          62.3137   80.5821   14.1337 O.2     1  UNL1       -0.2262
      3 N          62.9333   83.1051   14.1475 N.am    1  UNL1       -0.2383
      4 C          63.2498   84.5215   13.7681 C.3     1  UNL1        0.1218
      5 C          63.4507   84.8640   15.2146 C.2     1  UNL1        0.0038
      6 C          63.8166   86.1076   15.9692 C.2     1  UNL1        0.0444
      7 C          63.1342   83.4477   15.5939 C.3     1  UNL1        0.1218
      8 C          64.0704   87.3871   15.2283 C.1     1  UNL1       -0.0582
      9 C          64.3241   88.6664   14.4875 C.1     1  UNL1       -0.0405
     10 C          64.5779   89.9458   13.7467 C.ar    1  UNL1        0.1224
     11 C          65.4994   90.9779   14.3261 C.ar    1  UNL1        0.0276
     12 C          65.7531   92.2572   13.5853 C.ar    1  UNL1        0.0034
     13 C          65.0853   92.5045   12.2651 C.ar    1  UNL1        0.0148
     14 C          64.1638   91.4725   11.6857 C.ar    1  UNL1        0.0600
     15 C          63.4960   91.7198   10.3655 C.3     1  UNL1        0.0521
     16 N          63.9101   90.1932   12.4265 N.ar    1  UNL1       -0.2414
     17 O          62.4553   81.8972   11.8975 O.3     1  UNL1       -0.4345
     18 C          64.0764   83.1878   10.3302 C.3     1  UNL1        0.0513
     19 C          63.6946   81.9301   11.0530 C.3     1  UNL1        0.2102
@<TRIPOS>BOND
     1    18    19    1
     2    19    17    1
     3    17     1    1
     4     1     2    2
     5     1     3   am
     6     3     4    1
     7     4     5    1
     8     5     6    2
     9     6     8    1
    10     8     9    3
    11     9    10    1
    12    10    11   ar
    13    11    12   ar
    14    12    13   ar
    15    13    14   ar
    16    14    15    1
    17    14    16   ar
    18     5     7    1
    19     7     3    1
    20    16    10   ar
@<TRIPOS>MOLECULE
*****
 19 20 0 0 0
SMALL
GASTEIGER

@<TRIPOS>ATOM
      1 C          63.9724   82.4160   13.5940 C.2     1  UNL1        0.4053
      2 O          63.4619   81.1533   14.2225 O.2     1  UNL1       -0.2262
      3 N          63.8397   83.7219   14.3198 N.am    1  UNL1       -0.2383
      4 C          64.2169   85.1432   14.0236 C.3     1  UNL1        0.1218
      5 C          63.6521   85.5688   15.3464 C.2     1  UNL1        0.0038
      6 C          63.5194   86.8747   16.0723 C.2     1  UNL1        0.0444
      7 C          63.2749   84.1475   15.6427 C.3     1  UNL1        0.1218
      8 C          64.0299   88.1374   15.4438 C.1     1  UNL1       -0.0582
      9 C          64.5404   89.4001   14.8153 C.1     1  UNL1       -0.0405
     10 C          65.0509   90.6628   14.1867 C.ar    1  UNL1        0.1224
     11 C          65.9118   91.6006   14.9801 C.ar    1  UNL1        0.0276
     12 C          66.4222   92.8633   14.3515 C.ar    1  UNL1        0.0034
     13 C          66.0718   93.1881   12.9297 C.ar    1  UNL1        0.0148
     14 C          65.2109   92.2503   12.1363 C.ar    1  UNL1        0.0600
     15 C          64.8605   92.5751   10.7145 C.3     1  UNL1        0.0521
     16 N          64.7005   90.9877   12.7649 N.ar    1  UNL1       -0.2414
     17 O          64.6156   82.3727   12.2395 O.3     1  UNL1       -0.4345
     18 C          63.8864   83.4530    9.9920 C.3     1  UNL1        0.0513
     19 C          63.7637   82.3536   11.0050 C.3     1  UNL1        0.2102
@<TRIPOS>BOND
     1    18    19    1
     2    19    17    1
     3    17     1    1
     4     1     2    2
     5     1     3   am
     6     3     4    1
     7     4     5    1
     8     5     6    2
     9     6     8    1
    10     8     9    3
    11     9    10    1
    12    10    11   ar
    13    11    12   ar
    14    12    13   ar
    15    13    14   ar
    16    14    15    1
    17    14    16   ar
    18     5     7    1
    19     7     3    1
    20    16    10   ar
@<TRIPOS>MOLECULE
*****
 19 20 0 0 0
SMALL
GASTEIGER

@<TRIPOS>ATOM
      1 C          59.6657   88.4735    7.8041 C.2     1  UNL1        0.4053
      2 O          58.7995   87.3231    7.3840 O.2     1  UNL1       -0.2262
      3 N          60.5075   88.3660    9.0409 N.am    1  UNL1       -0.2383
      4 C          61.4663   89.2731    9.7535 C.3     1  UNL1        0.1218
      5 C          61.6981   88.2139   10.7900 C.2     1  UNL1        0.0038
      6 C          62.5399   88.1064   12.0268 C.2     1  UNL1        0.0444
      7 C          60.7393   87.3068   10.0774 C.3     1  UNL1        0.1218
      8 C          63.4060   89.2568   12.4469 C.1     1  UNL1       -0.0582
      9 C          64.2721   90.4072   12.8670 C.1     1  UNL1       -0.0405
     10 C          65.1383   91.5576   13.2871 C.ar    1  UNL1        0.1224
     11 C          65.3829   92.6964   12.3420 C.ar    1  UNL1        0.0276
     12 C          66.2490   93.8468   12.7622 C.ar    1  UNL1        0.0034
     13 C          66.8705   93.8583   14.1273 C.ar    1  UNL1        0.0148
     14 C          66.6259   92.7194   15.0723 C.ar    1  UNL1        0.0600
     15 C          67.2474   92.7309   16.4375 C.3     1  UNL1        0.0521
     16 N          65.7598   91.5691   14.6522 N.ar    1  UNL1       -0.2414
     17 O          59.6900   89.7314    6.9873 O.3     1  UNL1       -0.4345
     18 C          58.6079   91.2638    5.1898 C.3     1  UNL1        0.0513
     19 C          58.6463   89.9626    5.9350 C.3     1  UNL1        0.2102
@<TRIPOS>BOND
     1    18    19    1
     2    19    17    1
     3    17     1    1
     4     1     2    2
     5     1     3   am
     6     3     4    1
     7     4     5    1
     8     5     6    2
     9     6     8    1
    10     8     9    3
    11     9    10    1
    12    10    11   ar
    13    11    12   ar
    14    12    13   ar
    15    13    14   ar
    16    14    15    1
    17    14    16   ar
    18     5     7    1
    19     7     3    1
    20    16    10   ar
@<TRIPOS>MOLECULE
*****
 19 20 0 0 0
SMALL
GASTEIGER

@<TRIPOS>ATOM
      1 C          63.7455   86.1884   15.6096 C.2     1  UNL1        0.4053
      2 O          62.9685   85.6595   16.7787 O.2     1  UNL1       -0.2262
      3 N          63.9018   87.6682   15.4207 N.am    1  UNL1       -0.2383
      4 C          64.5828   88.5424   14.4097 C.3     1  UNL1        0.1218
      5 C          64.1228   89.7610   15.1535 C.2     1  UNL1        0.0038
      6 C          64.2791   91.2408   14.9646 C.2     1  UNL1        0.0444
      7 C          63.4417   88.8869   16.1645 C.3     1  UNL1        0.1218
      8 C          65.0560   91.7698   13.7956 C.1     1  UNL1       -0.0582
      9 C          65.8330   92.2986   12.6266 C.1     1  UNL1       -0.0405
     10 C          66.6099   92.8276   11.4575 C.ar    1  UNL1        0.1224
     11 C          67.5972   91.9457   10.7523 C.ar    1  UNL1        0.0276
     12 C          68.3741   92.4746    9.5833 C.ar    1  UNL1        0.0034
     13 C          68.1637   93.8855    9.1195 C.ar    1  UNL1        0.0148
     14 C          67.1763   94.7675    9.8247 C.ar    1  UNL1        0.0600
     15 C          66.9659   96.1783    9.3609 C.3     1  UNL1        0.0521
     16 N          66.3995   94.2385   10.9937 N.ar    1  UNL1       -0.2414
     17 O          64.3661   85.2375   14.6295 O.3     1  UNL1       -0.4345
     18 C          63.6624   82.8630   13.8444 C.3     1  UNL1        0.0513
     19 C          64.2921   83.7587   14.8696 C.3     1  UNL1        0.2102
@<TRIPOS>BOND
     1    18    19    1
     2    19    17    1
     3    17     1    1
     4     1     2    2
     5     1     3   am
     6     3     4    1
     7     4     5    1
     8     5     6    2
     9     6     8    1
    10     8     9    3
    11     9    10    1
    12    10    11   ar
    13    11    12   ar
    14    12    13   ar
    15    13    14   ar
    16    14    15    1
    17    14    16   ar
    18     5     7    1
    19     7     3    1
    20    16    10   ar
@<TRIPOS>MOLECULE
*****
 19 20 0 0 0
SMALL
GASTEIGER

@<TRIPOS>ATOM
      1 C          62.9257   83.4938   12.5276 C.2     1  UNL1        0.4053
      2 O          62.0431   82.4089   11.9850 O.2     1  UNL1       -0.2262
      3 N          62.6925   84.9205   12.1276 N.am    1  UNL1       -0.2383
      4 C          63.3433   86.2327   12.4510 C.3     1  UNL1        0.1218
      5 C          62.3627   86.9382   11.5619 C.2     1  UNL1        0.0038
      6 C          62.1294   88.3650   11.1620 C.2     1  UNL1        0.0444
      7 C          61.7118   85.6261   11.2385 C.3     1  UNL1        0.1218
      8 C          63.0120   89.4498   11.7045 C.1     1  UNL1       -0.0582
      9 C          63.8945   90.5346   12.2470 C.1     1  UNL1       -0.0405
     10 C          64.7770   91.6195   12.7895 C.ar    1  UNL1        0.1224
     11 C          65.2741   92.7058   11.8824 C.ar    1  UNL1        0.0276
     12 C          66.1566   93.7906   12.4249 C.ar    1  UNL1        0.0034
     13 C          66.5420   93.7891   13.8746 C.ar    1  UNL1        0.0148
     14 C          66.0449   92.7029   14.7817 C.ar    1  UNL1        0.0600
     15 C          66.4303   92.7014   16.2313 C.3     1  UNL1        0.0521
     16 N          65.1624   91.6181   14.2391 N.ar    1  UNL1       -0.2414
     17 O          64.0414   83.1518   13.4700 O.3     1  UNL1       -0.4345
     18 C          62.5794   83.9152   15.4776 C.3     1  UNL1        0.0513
     19 C          63.8679   83.3616   14.9452 C.3     1  UNL1        0.2102
@<TRIPOS>BOND
     1    18    19    1
     2    19    17    1
     3    17     1    1
     4     1     2    2
     5     1     3   am
     6     3     4    1
     7     4     5    1
     8     5     6    2
     9     6     8    1
    10     8     9    3
    11     9    10    1
    12    10    11   ar
    13    11    12   ar
    14    12    13   ar
    15    13    14   ar
    16    14    15    1
    17    14    16   ar
    18     5     7    1
    19     7     3    1
    20    16    10   ar
