@<TRIPOS>MOLECULE
*****
 36 39 0 0 0
SMALL
GASTEIGER

@<TRIPOS>ATOM
      1 C          63.1531   88.9137   12.5665 C.2     1  UNL1        0.0732
      2 C          64.0565   88.5938   13.7205 C.2     1  UNL1        0.1887
      3 O          64.6985   89.5898   14.6401 O.2     1  UNL1       -0.5020
      4 C          64.2052   87.1030   13.7932 C.2     1  UNL1        0.2869
      5 O          65.0220   86.3464   14.7984 O.2     1  UNL1       -0.2662
      6 N          63.3936   86.5015   12.6843 N.am    1  UNL1       -0.2463
      7 C          62.7434   87.6206   11.9262 C.3     1  UNL1        0.1338
      8 H          64.5473   90.5063   14.5173 H       1  UNL1        0.2924
      9 C          63.2565   85.0379   12.3859 C.ar    1  UNL1        0.0548
     10 C          62.7283   84.1048   13.4349 C.ar    1  UNL1        0.0149
     11 C          62.5912   82.6413   13.1365 C.ar    1  UNL1        0.0014
     12 C          62.9821   82.1107   11.7890 C.ar    1  UNL1        0.0032
     13 C          63.5102   83.0438   10.7400 C.ar    1  UNL1        0.0014
     14 C          63.6474   84.5073   11.0384 C.ar    1  UNL1        0.0149
     15 C          62.8450   80.6471   11.4906 C.ar    1  UNL1        0.0408
     16 C          62.9626   80.0081   10.1386 C.ar    1  UNL1        0.0438
     17 C          62.7564   78.5316   10.3041 C.ar    1  UNL1        0.1798
     18 O          62.5113   78.2581   11.7585 O.2     1  UNL1       -0.4473
     19 C          62.5661   79.5655   12.4917 C.ar    1  UNL1        0.1797
     20 C          61.8418   87.4727   10.7365 C.ar    1  UNL1        0.0344
     21 C          62.4008   87.0062    9.4251 C.ar    1  UNL1        0.0007
     22 C          61.4992   86.8583    8.2355 C.ar    1  UNL1       -0.0001
     23 C          60.0385   87.1769    8.3573 C.ar    1  UNL1        0.0031
     24 C          59.4795   87.6434    9.6688 C.ar    1  UNL1        0.0366
     25 C          60.3811   87.7913   10.8584 C.ar    1  UNL1        0.1365
     26 O          59.8220   88.2578   12.1697 O.3     1  UNL1       -0.4730
     27 C          58.4796   88.9255   12.2178 C.3     1  UNL1        0.2370
     28 C          57.5302   88.6209   13.3383 C.3     1  UNL1        0.1847
     29 O          56.1059   88.2589   13.0372 O.3     1  UNL1       -0.3784
     30 H          55.6543   89.0224   12.6448 H       1  UNL1        0.2106
     31 C          62.7330   90.2859   12.1297 C.2     1  UNL1        0.1732
     32 O          61.3482   90.7777   12.4306 O.2     1  UNL1       -0.2915
     33 C          63.0908   90.7392   10.0886 C.3     1  UNL1        0.0077
     34 C          63.6978   91.1663   11.3921 C.3     1  UNL1        0.0554
     35 C          64.3048   91.5933   12.6956 C.3     1  UNL1        0.0077
     36 C          64.6625   92.0466   10.6544 C.3     1  UNL1        0.0077
@<TRIPOS>BOND
     1    33    34    1
     2    34    35    1
     3    34    36    1
     4    34    31    1
     5    31    32    2
     6    31     1    1
     7     1     2    2
     8     2     3    1
     9     2     4    1
    10     4     5    2
    11     4     6   am
    12     6     9    1
    13     9    10   ar
    14    10    11   ar
    15    11    12   ar
    16    12    15    1
    17    15    16   ar
    18    16    17   ar
    19    17    18   ar
    20    18    19   ar
    21    12    13   ar
    22    13    14   ar
    23     6     7    1
    24     7    20    1
    25    20    21   ar
    26    21    22   ar
    27    22    23   ar
    28    23    24   ar
    29    24    25   ar
    30    25    26    1
    31    26    27    1
    32    27    28    1
    33    28    29    1
    34     7     1    1
    35    25    20   ar
    36    14     9   ar
    37    19    15   ar
    38     3     8    1
    39    29    30    1
@<TRIPOS>MOLECULE
*****
 36 39 0 0 0
SMALL
GASTEIGER

@<TRIPOS>ATOM
      1 C          62.6259   83.6136   13.5251 C.2     1  UNL1        0.0732
      2 C          62.8365   83.8311   14.9943 C.2     1  UNL1        0.1887
      3 O          62.6390   82.8089   16.0741 O.2     1  UNL1       -0.5020
      4 C          63.2793   85.2502   15.1940 C.2     1  UNL1        0.2869
      5 O          63.6023   85.8963   16.5086 O.2     1  UNL1       -0.2662
      6 N          63.3423   85.9099   13.8482 N.am    1  UNL1       -0.2463
      7 C          62.9385   84.8984   12.8168 C.3     1  UNL1        0.1338
      8 H          62.3589   81.9424   15.8534 H       1  UNL1        0.2924
      9 C          63.7394   87.3315   13.5809 C.ar    1  UNL1        0.0548
     10 C          64.5805   88.0750   14.5758 C.ar    1  UNL1        0.0149
     11 C          64.9776   89.4965   14.3084 C.ar    1  UNL1        0.0014
     12 C          64.5336   90.1745   13.0462 C.ar    1  UNL1        0.0032
     13 C          63.6926   89.4310   12.0513 C.ar    1  UNL1        0.0014
     14 C          63.2955   88.0095   12.3187 C.ar    1  UNL1        0.0149
     15 C          64.9308   91.5962   12.7788 C.ar    1  UNL1        0.0408
     16 C          64.8987   92.2849   11.4467 C.ar    1  UNL1        0.0438
     17 C          65.3778   93.6930   11.6412 C.ar    1  UNL1        0.1798
     18 O          65.7060   93.8744   13.0936 O.2     1  UNL1       -0.4473
     19 C          65.4298   92.5785   13.7966 C.ar    1  UNL1        0.1797
     20 C          62.8609   85.1308   11.3370 C.ar    1  UNL1        0.0344
     21 C          63.8200   84.4353   10.4172 C.ar    1  UNL1        0.0007
     22 C          63.7424   84.6677    8.9373 C.ar    1  UNL1       -0.0001
     23 C          62.7056   85.5957    8.3773 C.ar    1  UNL1        0.0031
     24 C          61.7464   86.2914    9.2971 C.ar    1  UNL1        0.0366
     25 C          61.8240   86.0590   10.7770 C.ar    1  UNL1        0.1365
     26 O          60.8649   86.7546   11.6967 O.3     1  UNL1       -0.4730
     27 C          60.0166   87.8804   11.1839 C.3     1  UNL1        0.2370
     28 C          59.5376   88.9469   12.1235 C.3     1  UNL1        0.1847
     29 O          58.5756   88.6022   13.2216 O.3     1  UNL1       -0.3784
     30 H          57.7273   88.3331   12.8357 H       1  UNL1        0.2106
     31 C          62.1808   82.3357   12.8778 C.2     1  UNL1        0.1732
     32 O          61.5405   82.3652   11.5217 O.2     1  UNL1       -0.2915
     33 C          63.8308   81.0476   13.2217 C.3     1  UNL1        0.0077
     34 C          62.3760   81.0283   13.5867 C.3     1  UNL1        0.0554
     35 C          60.9212   81.0091   13.9518 C.3     1  UNL1        0.0077
     36 C          62.5712   79.7209   14.2956 C.3     1  UNL1        0.0077
@<TRIPOS>BOND
     1    33    34    1
     2    34    35    1
     3    34    36    1
     4    34    31    1
     5    31    32    2
     6    31     1    1
     7     1     2    2
     8     2     3    1
     9     2     4    1
    10     4     5    2
    11     4     6   am
    12     6     9    1
    13     9    10   ar
    14    10    11   ar
    15    11    12   ar
    16    12    15    1
    17    15    16   ar
    18    16    17   ar
    19    17    18   ar
    20    18    19   ar
    21    12    13   ar
    22    13    14   ar
    23     6     7    1
    24     7    20    1
    25    20    21   ar
    26    21    22   ar
    27    22    23   ar
    28    23    24   ar
    29    24    25   ar
    30    25    26    1
    31    26    27    1
    32    27    28    1
    33    28    29    1
    34     7     1    1
    35    25    20   ar
    36    14     9   ar
    37    19    15   ar
    38     3     8    1
    39    29    30    1
@<TRIPOS>MOLECULE
*****
 36 39 0 0 0
SMALL
GASTEIGER

@<TRIPOS>ATOM
      1 C          59.9463   94.4809   -0.9774 C.2     1  UNL1        0.0732
      2 C          59.1588   94.2009   -2.2230 C.2     1  UNL1        0.1887
      3 O          57.6989   93.8624   -2.2857 O.2     1  UNL1       -0.5020
      4 C          60.0877   94.3186   -3.3949 C.2     1  UNL1        0.2869
      5 O          59.7197   94.1186   -4.8352 O.2     1  UNL1       -0.2662
      6 N          61.4493   94.6715   -2.8736 N.am    1  UNL1       -0.2463
      7 C          61.3618   94.7718   -1.3795 C.3     1  UNL1        0.1338
      8 H          57.1956   93.8110   -1.4971 H       1  UNL1        0.2924
      9 C          62.6818   94.8863   -3.7011 C.ar    1  UNL1        0.0548
     10 C          63.5894   93.7323   -4.0083 C.ar    1  UNL1        0.0149
     11 C          64.8219   93.9472   -4.8358 C.ar    1  UNL1        0.0014
     12 C          65.1468   95.3160   -5.3561 C.ar    1  UNL1        0.0032
     13 C          64.2392   96.4700   -5.0488 C.ar    1  UNL1        0.0014
     14 C          63.0067   96.2552   -4.2213 C.ar    1  UNL1        0.0149
     15 C          66.3793   95.5309   -6.1836 C.ar    1  UNL1        0.0408
     16 C          67.2055   94.4584   -6.8296 C.ar    1  UNL1        0.0438
     17 C          68.3389   95.1205   -7.5557 C.ar    1  UNL1        0.1798
     18 O          68.2131   96.6022   -7.3583 O.2     1  UNL1       -0.4473
     19 C          67.0021   96.8558   -6.5103 C.ar    1  UNL1        0.1797
     20 C          62.4916   95.1045   -0.4505 C.ar    1  UNL1        0.0344
     21 C          62.9713   96.5206   -0.3300 C.ar    1  UNL1        0.0007
     22 C          64.1011   96.8533    0.5989 C.ar    1  UNL1       -0.0001
     23 C          64.7511   95.7699    1.4074 C.ar    1  UNL1        0.0031
     24 C          64.2713   94.3538    1.2869 C.ar    1  UNL1        0.0366
     25 C          63.1416   94.0211    0.3580 C.ar    1  UNL1        0.1365
     26 O          62.6619   92.6050    0.2376 O.3     1  UNL1       -0.4730
     27 C          62.3223   91.8207    1.4703 C.3     1  UNL1        0.2370
     28 C          63.3947   91.4821    2.4629 C.3     1  UNL1        0.1847
     29 O          63.0463   91.2994    3.9105 O.3     1  UNL1       -0.3784
     30 H          62.7444   92.1442    4.2795 H       1  UNL1        0.2106
     31 C          59.4120   94.4718    0.4242 C.2     1  UNL1        0.1732
     32 O          58.5373   93.3441    0.8861 O.2     1  UNL1       -0.2915
     33 C          59.2337   96.5848    0.3680 C.3     1  UNL1        0.0077
     34 C          59.7524   95.5903    1.3639 C.3     1  UNL1        0.0554
     35 C          60.2710   94.5957    2.3598 C.3     1  UNL1        0.0077
     36 C          60.0928   96.7087    2.3036 C.3     1  UNL1        0.0077
@<TRIPOS>BOND
     1    33    34    1
     2    34    35    1
     3    34    36    1
     4    34    31    1
     5    31    32    2
     6    31     1    1
     7     1     2    2
     8     2     3    1
     9     2     4    1
    10     4     5    2
    11     4     6   am
    12     6     9    1
    13     9    10   ar
    14    10    11   ar
    15    11    12   ar
    16    12    15    1
    17    15    16   ar
    18    16    17   ar
    19    17    18   ar
    20    18    19   ar
    21    12    13   ar
    22    13    14   ar
    23     6     7    1
    24     7    20    1
    25    20    21   ar
    26    21    22   ar
    27    22    23   ar
    28    23    24   ar
    29    24    25   ar
    30    25    26    1
    31    26    27    1
    32    27    28    1
    33    28    29    1
    34     7     1    1
    35    25    20   ar
    36    14     9   ar
    37    19    15   ar
    38     3     8    1
    39    29    30    1
@<TRIPOS>MOLECULE
*****
 36 39 0 0 0
SMALL
GASTEIGER

@<TRIPOS>ATOM
      1 C          62.2580   88.8860   11.3058 C.2     1  UNL1        0.0732
      2 C          62.2901   90.0297   10.3357 C.2     1  UNL1        0.1887
      3 O          61.4433   90.1660    9.1051 O.2     1  UNL1       -0.5020
      4 C          63.3177   91.0130   10.8122 C.2     1  UNL1        0.2869
      5 O          63.6788   92.3053   10.1418 O.2     1  UNL1       -0.2662
      6 N          63.9207   90.4771   12.0768 N.am    1  UNL1       -0.2463
      7 C          63.2658   89.1626   12.3819 C.3     1  UNL1        0.1338
      8 H          60.8245   89.4975    8.8858 H       1  UNL1        0.2924
      9 C          64.9907   91.1395   12.8931 C.ar    1  UNL1        0.0548
     10 C          65.7273   90.3578   13.9401 C.ar    1  UNL1        0.0149
     11 C          66.7973   91.0203   14.7563 C.ar    1  UNL1        0.0014
     12 C          67.1308   92.4644   14.5255 C.ar    1  UNL1        0.0032
     13 C          66.3942   93.2461   13.4785 C.ar    1  UNL1        0.0014
     14 C          65.3242   92.5837   12.6623 C.ar    1  UNL1        0.0149
     15 C          68.2009   93.1268   15.3418 C.ar    1  UNL1        0.0408
     16 C          68.3904   94.6048   15.5140 C.ar    1  UNL1        0.0438
     17 C          69.5759   94.8190   16.4078 C.ar    1  UNL1        0.1798
     18 O          70.1190   93.4734   16.7878 O.2     1  UNL1       -0.4473
     19 C          69.2692   92.4276   16.1290 C.ar    1  UNL1        0.1797
     20 C          63.5659   88.2796   13.5567 C.ar    1  UNL1        0.0344
     21 C          64.1252   86.9051   13.3384 C.ar    1  UNL1        0.0007
     22 C          64.4253   86.0221   14.5133 C.ar    1  UNL1       -0.0001
     23 C          64.1661   86.5137   15.9065 C.ar    1  UNL1        0.0031
     24 C          63.6067   87.8883   16.1248 C.ar    1  UNL1        0.0366
     25 C          63.3066   88.7713   14.9500 C.ar    1  UNL1        0.1365
     26 O          62.7473   90.1458   15.1684 O.3     1  UNL1       -0.4730
     27 C          63.0467   90.8842   16.4393 C.3     1  UNL1        0.2370
     28 C          64.2581   91.7641   16.5280 C.3     1  UNL1        0.1847
     29 O          64.1649   93.1036   17.1967 O.3     1  UNL1       -0.3784
     30 H          63.5814   93.6823   16.6814 H       1  UNL1        0.2106
     31 C          61.3735   87.6779   11.2157 C.2     1  UNL1        0.1732
     32 O          59.9640   87.7406   11.7251 O.2     1  UNL1       -0.2915
     33 C          61.6994   85.7063   11.9272 C.3     1  UNL1        0.0077
     34 C          61.8983   86.4071   10.6161 C.3     1  UNL1        0.0554
     35 C          62.0973   87.1080    9.3049 C.3     1  UNL1        0.0077
     36 C          62.4232   85.1364   10.0165 C.3     1  UNL1        0.0077
@<TRIPOS>BOND
     1    33    34    1
     2    34    35    1
     3    34    36    1
     4    34    31    1
     5    31    32    2
     6    31     1    1
     7     1     2    2
     8     2     3    1
     9     2     4    1
    10     4     5    2
    11     4     6   am
    12     6     9    1
    13     9    10   ar
    14    10    11   ar
    15    11    12   ar
    16    12    15    1
    17    15    16   ar
    18    16    17   ar
    19    17    18   ar
    20    18    19   ar
    21    12    13   ar
    22    13    14   ar
    23     6     7    1
    24     7    20    1
    25    20    21   ar
    26    21    22   ar
    27    22    23   ar
    28    23    24   ar
    29    24    25   ar
    30    25    26    1
    31    26    27    1
    32    27    28    1
    33    28    29    1
    34     7     1    1
    35    25    20   ar
    36    14     9   ar
    37    19    15   ar
    38     3     8    1
    39    29    30    1
