@<TRIPOS>MOLECULE
*****
 30 32 0 0 0
SMALL
GASTEIGER

@<TRIPOS>ATOM
      1 C          64.2989   89.7113   14.2214 C.ar    1  UNL1        0.0942
      2 C          65.3911   90.5556   14.8080 C.ar    1  UNL1        0.1078
      3 N          65.7957   91.8330   14.1339 N.ar    1  UNL1       -0.2119
      4 C          65.1081   92.2661   12.8731 C.ar    1  UNL1        0.2206
      5 N          64.0158   91.4218   12.2865 N.ar    1  UNL1       -0.2094
      6 C          63.6112   90.1443   12.9607 C.ar    1  UNL1        0.1613
      7 O          62.9817   88.4702   16.0855 O.2     1  UNL1       -0.2700
      8 C          63.8942   88.4339   14.8956 C.2     1  UNL1        0.2490
      9 N          64.4022   87.1200   14.3797 N.am    1  UNL1       -0.2968
     10 H          65.0011   87.0962   13.5987 H       1  UNL1        0.1501
     11 C          63.9975   85.8426   15.0539 C.3     1  UNL1        0.1167
     12 C          63.4570   84.7040   14.2406 C.ar    1  UNL1        0.0005
     13 C          63.0613   83.4232   14.9136 C.ar    1  UNL1        0.0181
     14 C          62.5208   82.2846   14.1003 C.ar    1  UNL1        0.0986
     15 N          62.3759   82.4268   12.6141 N.ar    1  UNL1       -0.2423
     16 C          62.7716   83.7076   11.9412 C.ar    1  UNL1        0.0986
     17 C          63.3122   84.8462   12.7544 C.ar    1  UNL1        0.0181
     18 C          62.5190   89.3000   12.3741 C.3     1  UNL1        0.4351
     19 F          61.4267   88.4557   11.7874 F       1  UNL1       -0.1644
     20 F          61.4933   90.1360   13.0806 F       1  UNL1       -0.1644
     21 F          63.5446   88.4641   11.6675 F       1  UNL1       -0.1644
     22 N          65.5127   93.5435   12.1990 N.pl3   1  UNL1       -0.2825
     23 H          65.1634   94.4043   12.5251 H       1  UNL1        0.1551
     24 C          66.4494   93.5095   11.0279 C.ar    1  UNL1        0.0513
     25 C          67.2553   92.2758   10.7477 C.ar    1  UNL1        0.0147
     26 C          68.1921   92.2418    9.5767 C.ar    1  UNL1        0.0021
     27 C          68.3229   93.4415    8.6858 C.ar    1  UNL1        0.0115
     28 C          67.5170   94.6751    8.9660 C.ar    1  UNL1        0.0589
     29 CL         67.6478   95.8748    8.0751 Cl      1  UNL1       -0.0822
     30 C          66.5803   94.7091   10.1371 C.ar    1  UNL1        0.0261
@<TRIPOS>BOND
     1     7     8    2
     2     8     9   am
     3     9    11    1
     4    11    12    1
     5    12    13   ar
     6    13    14   ar
     7    14    15   ar
     8    15    16   ar
     9    16    17   ar
    10     8     1    1
    11     1     2   ar
    12     2     3   ar
    13     3     4   ar
    14     4    22    1
    15    22    24    1
    16    24    25   ar
    17    25    26   ar
    18    26    27   ar
    19    27    28   ar
    20    28    29    1
    21    28    30   ar
    22     4     5   ar
    23     5     6   ar
    24     6    18    1
    25    18    19    1
    26    18    20    1
    27    18    21    1
    28    17    12   ar
    29     6     1   ar
    30    30    24   ar
    31     9    10    1
    32    22    23    1
@<TRIPOS>MOLECULE
*****
 30 32 0 0 0
SMALL
GASTEIGER

@<TRIPOS>ATOM
      1 C          63.1422   89.5104   12.1261 C.ar    1  UNL1        0.0942
      2 C          63.2750   90.3997   10.9255 C.ar    1  UNL1        0.1078
      3 N          64.0744   91.6658   11.0148 N.ar    1  UNL1       -0.2119
      4 C          64.7409   92.0427   12.3047 C.ar    1  UNL1        0.2206
      5 N          64.6080   91.1533   13.5053 N.ar    1  UNL1       -0.2094
      6 C          63.8086   89.8872   13.4160 C.ar    1  UNL1        0.1613
      7 O          60.8510   88.3077   11.8935 O.2     1  UNL1       -0.2700
      8 C          62.3428   88.2443   12.0368 C.2     1  UNL1        0.2490
      9 N          63.0353   86.9147   12.0909 N.am    1  UNL1       -0.2968
     10 H          64.0144   86.8731   12.1850 H       1  UNL1        0.1501
     11 C          62.2359   85.6487   12.0016 C.3     1  UNL1        0.1167
     12 C          62.6657   84.4345   12.7706 C.ar    1  UNL1        0.0005
     13 C          62.7301   83.0995   12.0899 C.ar    1  UNL1        0.0181
     14 C          63.1598   81.8855   12.8589 C.ar    1  UNL1        0.0986
     15 N          63.5252   82.0065   14.3086 N.ar    1  UNL1       -0.2423
     16 C          63.4608   83.3415   14.9894 C.ar    1  UNL1        0.0986
     17 C          63.0311   84.5555   14.2204 C.ar    1  UNL1        0.0181
     18 C          63.6758   88.9978   14.6166 C.3     1  UNL1        0.4351
     19 F          63.5429   88.1085   15.8172 F       1  UNL1       -0.1644
     20 F          62.5188   89.8217   15.0989 F       1  UNL1       -0.1644
     21 F          64.8327   88.1739   14.1343 F       1  UNL1       -0.1644
     22 N          65.5402   93.3087   12.3940 N.pl3   1  UNL1       -0.2825
     23 H          65.5374   93.8351   13.2260 H       1  UNL1        0.1551
     24 C          66.3440   93.7730   11.2156 C.ar    1  UNL1        0.0513
     25 C          66.2634   95.2027   10.7692 C.ar    1  UNL1        0.0147
     26 C          67.0672   95.6669    9.5909 C.ar    1  UNL1        0.0021
     27 C          67.9514   94.7014    8.8589 C.ar    1  UNL1        0.0115
     28 C          68.0320   93.2717    9.3054 C.ar    1  UNL1        0.0589
     29 CL         68.9163   92.3061    8.5734 Cl      1  UNL1       -0.0822
     30 C          67.2283   92.8075   10.4837 C.ar    1  UNL1        0.0261
@<TRIPOS>BOND
     1     7     8    2
     2     8     9   am
     3     9    11    1
     4    11    12    1
     5    12    13   ar
     6    13    14   ar
     7    14    15   ar
     8    15    16   ar
     9    16    17   ar
    10     8     1    1
    11     1     2   ar
    12     2     3   ar
    13     3     4   ar
    14     4    22    1
    15    22    24    1
    16    24    25   ar
    17    25    26   ar
    18    26    27   ar
    19    27    28   ar
    20    28    29    1
    21    28    30   ar
    22     4     5   ar
    23     5     6   ar
    24     6    18    1
    25    18    19    1
    26    18    20    1
    27    18    21    1
    28    17    12   ar
    29     6     1   ar
    30    30    24   ar
    31     9    10    1
    32    22    23    1
@<TRIPOS>MOLECULE
*****
 30 32 0 0 0
SMALL
GASTEIGER

@<TRIPOS>ATOM
      1 C          62.9689   88.9969   12.1248 C.ar    1  UNL1        0.0942
      2 C          63.8773   89.2051   13.3002 C.ar    1  UNL1        0.1078
      3 N          64.6193   90.4995   13.4547 N.ar    1  UNL1       -0.2119
      4 C          64.4528   91.5859   12.4338 C.ar    1  UNL1        0.2206
      5 N          63.5444   91.3778   11.2585 N.ar    1  UNL1       -0.2094
      6 C          62.8024   90.0832   11.1040 C.ar    1  UNL1        0.1613
      7 O          60.7427   87.7099   11.7542 O.2     1  UNL1       -0.2700
      8 C          62.2270   87.7025   11.9703 C.2     1  UNL1        0.2490
      9 N          62.9694   86.4005   12.0318 N.am    1  UNL1       -0.2968
     10 H          63.9436   86.3956   12.1737 H       1  UNL1        0.1501
     11 C          62.2275   85.1061   11.8773 C.3     1  UNL1        0.1167
     12 C          62.6712   83.8918   12.6382 C.ar    1  UNL1        0.0005
     13 C          63.0574   84.0115   14.0826 C.ar    1  UNL1        0.0181
     14 C          63.5011   82.7972   14.8433 C.ar    1  UNL1        0.0986
     15 N          63.5586   81.4634   14.1596 N.ar    1  UNL1       -0.2423
     16 C          63.1724   81.3437   12.7152 C.ar    1  UNL1        0.0986
     17 C          62.7287   82.5579   11.9544 C.ar    1  UNL1        0.0181
     18 C          61.8940   89.8751    9.9286 C.3     1  UNL1        0.4351
     19 F          60.9856   89.6670    8.7533 F       1  UNL1       -0.1644
     20 F          62.8641   88.8858    9.3540 F       1  UNL1       -0.1644
     21 F          60.9239   90.8644   10.5032 F       1  UNL1       -0.1644
     22 N          65.1947   92.8804   12.5883 N.pl3   1  UNL1       -0.2825
     23 H          65.1397   93.3814   13.4340 H       1  UNL1        0.1551
     24 C          66.0205   93.4115   11.4543 C.ar    1  UNL1        0.0513
     25 C          65.9175   94.8561   11.0640 C.ar    1  UNL1        0.0147
     26 C          66.7433   95.3873    9.9300 C.ar    1  UNL1        0.0021
     27 C          67.6721   94.4738    9.1864 C.ar    1  UNL1        0.0115
     28 C          67.7750   93.0292    9.5768 C.ar    1  UNL1        0.0589
     29 CL         68.7038   92.1157    8.8331 Cl      1  UNL1       -0.0822
     30 C          66.9492   92.4981   10.7107 C.ar    1  UNL1        0.0261
@<TRIPOS>BOND
     1     7     8    2
     2     8     9   am
     3     9    11    1
     4    11    12    1
     5    12    13   ar
     6    13    14   ar
     7    14    15   ar
     8    15    16   ar
     9    16    17   ar
    10     8     1    1
    11     1     2   ar
    12     2     3   ar
    13     3     4   ar
    14     4    22    1
    15    22    24    1
    16    24    25   ar
    17    25    26   ar
    18    26    27   ar
    19    27    28   ar
    20    28    29    1
    21    28    30   ar
    22     4     5   ar
    23     5     6   ar
    24     6    18    1
    25    18    19    1
    26    18    20    1
    27    18    21    1
    28    17    12   ar
    29     6     1   ar
    30    30    24   ar
    31     9    10    1
    32    22    23    1
@<TRIPOS>MOLECULE
*****
 30 32 0 0 0
SMALL
GASTEIGER

@<TRIPOS>ATOM
      1 C          63.1951   89.1012   12.1633 C.ar    1  UNL1        0.0942
      2 C          63.9478   88.7438   13.4105 C.ar    1  UNL1        0.1078
      3 N          63.9052   87.3394   13.9358 N.ar    1  UNL1       -0.2119
      4 C          63.1097   86.2924   13.2138 C.ar    1  UNL1        0.2206
      5 N          62.3570   86.6499   11.9665 N.ar    1  UNL1       -0.2094
      6 C          62.3997   88.0543   11.4413 C.ar    1  UNL1        0.1613
      7 O          61.9775   91.1688   11.1671 O.2     1  UNL1       -0.2700
      8 C          63.2378   90.5056   11.6380 C.2     1  UNL1        0.2490
      9 N          64.5408   91.2467   11.5836 N.am    1  UNL1       -0.2968
     10 H          65.3680   90.8114   11.8926 H       1  UNL1        0.1501
     11 C          64.5835   92.6511   11.0583 C.3     1  UNL1        0.1167
     12 C          65.8658   93.2109   10.5173 C.ar    1  UNL1        0.0005
     13 C          66.0038   94.6875   10.2930 C.ar    1  UNL1        0.0181
     14 C          67.2860   95.2472    9.7520 C.ar    1  UNL1        0.0986
     15 N          68.4301   94.3303    9.4354 N.ar    1  UNL1       -0.2423
     16 C          68.2920   92.8536    9.6597 C.ar    1  UNL1        0.0986
     17 C          67.0098   92.2939   10.2007 C.ar    1  UNL1        0.0181
     18 C          61.6470   88.4118   10.1940 C.3     1  UNL1        0.4351
     19 F          60.8943   88.7693    8.9467 F       1  UNL1       -0.1644
     20 F          62.8929   88.2081    9.3838 F       1  UNL1       -0.1644
     21 F          60.4012   88.6155   11.0042 F       1  UNL1       -0.1644
     22 N          63.0671   84.8881   13.7390 N.pl3   1  UNL1       -0.2825
     23 H          62.9643   84.7267   14.7047 H       1  UNL1        0.1551
     24 C          63.1809   83.7297   12.7929 C.ar    1  UNL1        0.0513
     25 C          63.7300   83.9396   11.4129 C.ar    1  UNL1        0.0147
     26 C          63.8439   82.7811   10.4668 C.ar    1  UNL1        0.0021
     27 C          63.4086   81.4129   10.9007 C.ar    1  UNL1        0.0115
     28 C          62.8594   81.2030   12.2807 C.ar    1  UNL1        0.0589
     29 CL         62.4241   79.8347   12.7146 Cl      1  UNL1       -0.0822
     30 C          62.7456   82.3614   13.2268 C.ar    1  UNL1        0.0261
@<TRIPOS>BOND
     1     7     8    2
     2     8     9   am
     3     9    11    1
     4    11    12    1
     5    12    13   ar
     6    13    14   ar
     7    14    15   ar
     8    15    16   ar
     9    16    17   ar
    10     8     1    1
    11     1     2   ar
    12     2     3   ar
    13     3     4   ar
    14     4    22    1
    15    22    24    1
    16    24    25   ar
    17    25    26   ar
    18    26    27   ar
    19    27    28   ar
    20    28    29    1
    21    28    30   ar
    22     4     5   ar
    23     5     6   ar
    24     6    18    1
    25    18    19    1
    26    18    20    1
    27    18    21    1
    28    17    12   ar
    29     6     1   ar
    30    30    24   ar
    31     9    10    1
    32    22    23    1
@<TRIPOS>MOLECULE
*****
 30 32 0 0 0
SMALL
GASTEIGER

@<TRIPOS>ATOM
      1 C          63.6899   89.5250   12.8619 C.ar    1  UNL1        0.0942
      2 C          63.9814   88.3300   13.7204 C.ar    1  UNL1        0.1078
      3 N          63.3679   87.0017   13.3903 N.ar    1  UNL1       -0.2119
      4 C          62.4627   86.8683   12.2015 C.ar    1  UNL1        0.2206
      5 N          62.1712   88.0633   11.3430 N.ar    1  UNL1       -0.2094
      6 C          62.7849   89.3916   11.6732 C.ar    1  UNL1        0.1613
      7 O          63.9439   91.5483   14.4718 O.2     1  UNL1       -0.2700
      8 C          64.3035   90.8533   13.1921 C.2     1  UNL1        0.2490
      9 N          65.2768   91.4867   12.2425 N.am    1  UNL1       -0.2968
     10 H          65.5128   91.0306   11.4025 H       1  UNL1        0.1501
     11 C          65.8903   92.8150   12.5726 C.3     1  UNL1        0.1167
     12 C          66.4267   93.6868   11.4760 C.ar    1  UNL1        0.0005
     13 C          66.2173   95.1712   11.5277 C.ar    1  UNL1        0.0181
     14 C          66.7536   96.0429   10.4312 C.ar    1  UNL1        0.0986
     15 N          67.4994   95.4302    9.2829 N.ar    1  UNL1       -0.2423
     16 C          67.7088   93.9458    9.2313 C.ar    1  UNL1        0.0986
     17 C          67.1725   93.0741   10.3278 C.ar    1  UNL1        0.0181
     18 C          62.4934   90.5866   10.8147 C.3     1  UNL1        0.4351
     19 F          62.2019   91.7816    9.9562 F       1  UNL1       -0.1644
     20 F          61.3158   90.9220   11.6813 F       1  UNL1       -0.1644
     21 F          63.6709   90.2513    9.9481 F       1  UNL1       -0.1644
     22 N          61.8492   85.5400   11.8714 N.pl3   1  UNL1       -0.2825
     23 H          60.8733   85.4604   11.7687 H       1  UNL1        0.1551
     24 C          62.7224   84.3328   11.6977 C.ar    1  UNL1        0.0513
     25 C          63.5067   84.1504   10.4321 C.ar    1  UNL1        0.0147
     26 C          64.3800   82.9432   10.2584 C.ar    1  UNL1        0.0021
     27 C          64.4690   81.9186   11.3502 C.ar    1  UNL1        0.0115
     28 C          63.6847   82.1010   12.6157 C.ar    1  UNL1        0.0589
     29 CL         63.7737   81.0763   13.7076 Cl      1  UNL1       -0.0822
     30 C          62.8115   83.3082   12.7894 C.ar    1  UNL1        0.0261
@<TRIPOS>BOND
     1     7     8    2
     2     8     9   am
     3     9    11    1
     4    11    12    1
     5    12    13   ar
     6    13    14   ar
     7    14    15   ar
     8    15    16   ar
     9    16    17   ar
    10     8     1    1
    11     1     2   ar
    12     2     3   ar
    13     3     4   ar
    14     4    22    1
    15    22    24    1
    16    24    25   ar
    17    25    26   ar
    18    26    27   ar
    19    27    28   ar
    20    28    29    1
    21    28    30   ar
    22     4     5   ar
    23     5     6   ar
    24     6    18    1
    25    18    19    1
    26    18    20    1
    27    18    21    1
    28    17    12   ar
    29     6     1   ar
    30    30    24   ar
    31     9    10    1
    32    22    23    1
@<TRIPOS>MOLECULE
*****
 30 32 0 0 0
SMALL
GASTEIGER

@<TRIPOS>ATOM
      1 C          64.0672   89.6675   13.4897 C.ar    1  UNL1        0.0942
      2 C          64.5554   88.6497   14.4776 C.ar    1  UNL1        0.1078
      3 N          64.1162   87.2203   14.3607 N.ar    1  UNL1       -0.2119
      4 C          63.1886   86.8086   13.2560 C.ar    1  UNL1        0.2206
      5 N          62.7004   87.8263   12.2682 N.ar    1  UNL1       -0.2094
      6 C          63.1398   89.2559   12.3851 C.ar    1  UNL1        0.1613
      7 O          64.1212   91.9040   14.8108 O.2     1  UNL1       -0.2700
      8 C          64.5065   91.0969   13.6066 C.2     1  UNL1        0.2490
      9 N          65.3312   91.7194   12.5191 N.am    1  UNL1       -0.2968
     10 H          65.5841   91.1898   11.7287 H       1  UNL1        0.1501
     11 C          65.7705   93.1489   12.6359 C.3     1  UNL1        0.1167
     12 C          66.3727   93.8475   11.4530 C.ar    1  UNL1        0.0005
     13 C          67.0920   93.0565   10.4010 C.ar    1  UNL1        0.0181
     14 C          67.6942   93.7552    9.2181 C.ar    1  UNL1        0.0986
     15 N          67.5770   95.2449    9.0872 N.ar    1  UNL1       -0.2423
     16 C          66.8576   96.0359   10.1392 C.ar    1  UNL1        0.0986
     17 C          66.2554   95.3372   11.3221 C.ar    1  UNL1        0.0181
     18 C          62.6516   90.2736   11.3973 C.3     1  UNL1        0.4351
     19 F          62.1634   91.2914   10.4094 F       1  UNL1       -0.1644
     20 F          61.4640   90.5515   12.2705 F       1  UNL1       -0.1644
     21 F          63.8392   89.9958   10.5241 F       1  UNL1       -0.1644
     22 N          62.7493   85.3791   13.1392 N.pl3   1  UNL1       -0.2825
     23 H          62.1747   84.9825   13.8332 H       1  UNL1        0.1551
     24 C          63.1856   84.5540   11.9650 C.ar    1  UNL1        0.0513
     25 C          63.9152   83.2621   12.1858 C.ar    1  UNL1        0.0147
     26 C          64.3515   82.4370   11.0116 C.ar    1  UNL1        0.0021
     27 C          64.0582   82.9037    9.6165 C.ar    1  UNL1        0.0115
     28 C          63.3287   84.1956    9.3957 C.ar    1  UNL1        0.0589
     29 CL         63.0355   84.6624    8.0007 Cl      1  UNL1       -0.0822
     30 C          62.8924   85.0207   10.5700 C.ar    1  UNL1        0.0261
@<TRIPOS>BOND
     1     7     8    2
     2     8     9   am
     3     9    11    1
     4    11    12    1
     5    12    13   ar
     6    13    14   ar
     7    14    15   ar
     8    15    16   ar
     9    16    17   ar
    10     8     1    1
    11     1     2   ar
    12     2     3   ar
    13     3     4   ar
    14     4    22    1
    15    22    24    1
    16    24    25   ar
    17    25    26   ar
    18    26    27   ar
    19    27    28   ar
    20    28    29    1
    21    28    30   ar
    22     4     5   ar
    23     5     6   ar
    24     6    18    1
    25    18    19    1
    26    18    20    1
    27    18    21    1
    28    17    12   ar
    29     6     1   ar
    30    30    24   ar
    31     9    10    1
    32    22    23    1
@<TRIPOS>MOLECULE
*****
 30 32 0 0 0
SMALL
GASTEIGER

@<TRIPOS>ATOM
      1 C          62.6865   87.1635   11.8489 C.ar    1  UNL1        0.0942
      2 C          63.5097   87.3398   13.0903 C.ar    1  UNL1        0.1078
      3 N          63.7761   88.7159   13.6244 N.ar    1  UNL1       -0.2119
      4 C          63.2192   89.9158   12.9171 C.ar    1  UNL1        0.2206
      5 N          62.3959   89.7395   11.6757 N.ar    1  UNL1       -0.2094
      6 C          62.1296   88.3633   11.1416 C.ar    1  UNL1        0.1613
      7 O          61.1739   85.5177   10.5247 O.2     1  UNL1       -0.2700
      8 C          62.4201   85.7874   11.3147 C.2     1  UNL1        0.2490
      9 N          63.4000   84.6808   11.5706 N.am    1  UNL1       -0.2968
     10 H          64.2179   84.8578   12.0892 H       1  UNL1        0.1501
     11 C          63.1336   83.3047   11.0365 C.3     1  UNL1        0.1167
     12 C          62.7731   82.1923   11.9760 C.ar    1  UNL1        0.0005
     13 C          62.9269   80.7647   11.5421 C.ar    1  UNL1        0.0181
     14 C          62.5664   79.6523   12.4816 C.ar    1  UNL1        0.0986
     15 N          62.0522   79.9676   13.8550 N.ar    1  UNL1       -0.2423
     16 C          61.8984   81.3951   14.2889 C.ar    1  UNL1        0.0986
     17 C          62.2589   82.5075   13.3494 C.ar    1  UNL1        0.0181
     18 C          61.3063   88.1870    9.9002 C.3     1  UNL1        0.4351
     19 F          60.4830   88.0106    8.6587 F       1  UNL1       -0.1644
     20 F          62.5541   87.9254    9.1098 F       1  UNL1       -0.1644
     21 F          60.0585   88.4485   10.6905 F       1  UNL1       -0.1644
     22 N          63.4856   91.2919   13.4513 N.pl3   1  UNL1       -0.2825
     23 H          62.7352   91.8678   13.7240 H       1  UNL1        0.1551
     24 C          64.8953   91.7905   13.5698 C.ar    1  UNL1        0.0513
     25 C          65.6061   92.3243   12.3617 C.ar    1  UNL1        0.0147
     26 C          67.0159   92.8229   12.4802 C.ar    1  UNL1        0.0021
     27 C          67.7147   92.7877   13.8070 C.ar    1  UNL1        0.0115
     28 C          67.0039   92.2540   15.0151 C.ar    1  UNL1        0.0589
     29 CL         67.7028   92.2188   16.3420 Cl      1  UNL1       -0.0822
     30 C          65.5942   91.7553   14.8966 C.ar    1  UNL1        0.0261
@<TRIPOS>BOND
     1     7     8    2
     2     8     9   am
     3     9    11    1
     4    11    12    1
     5    12    13   ar
     6    13    14   ar
     7    14    15   ar
     8    15    16   ar
     9    16    17   ar
    10     8     1    1
    11     1     2   ar
    12     2     3   ar
    13     3     4   ar
    14     4    22    1
    15    22    24    1
    16    24    25   ar
    17    25    26   ar
    18    26    27   ar
    19    27    28   ar
    20    28    29    1
    21    28    30   ar
    22     4     5   ar
    23     5     6   ar
    24     6    18    1
    25    18    19    1
    26    18    20    1
    27    18    21    1
    28    17    12   ar
    29     6     1   ar
    30    30    24   ar
    31     9    10    1
    32    22    23    1
@<TRIPOS>MOLECULE
*****
 30 32 0 0 0
SMALL
GASTEIGER

@<TRIPOS>ATOM
      1 C          63.4340   88.6395   12.8301 C.ar    1  UNL1        0.0942
      2 C          63.8806   87.3891   13.5278 C.ar    1  UNL1        0.1078
      3 N          63.4950   86.0466   12.9811 N.ar    1  UNL1       -0.2119
      4 C          62.6627   85.9545   11.7365 C.ar    1  UNL1        0.2206
      5 N          62.2161   87.2050   11.0387 N.ar    1  UNL1       -0.2094
      6 C          62.6018   88.5475   11.5856 C.ar    1  UNL1        0.1613
      7 O          63.6742   91.2085   12.5256 O.2     1  UNL1       -0.2700
      8 C          63.8196   89.9820   13.3769 C.2     1  UNL1        0.2490
      9 N          64.3506   90.0981   14.7750 N.am    1  UNL1       -0.2968
     10 H          64.4461   89.2931   15.3337 H       1  UNL1        0.1501
     11 C          64.7362   91.4406   15.3217 C.3     1  UNL1        0.1167
     12 C          66.1343   91.9521   15.1374 C.ar    1  UNL1        0.0005
     13 C          66.9429   91.5145   13.9522 C.ar    1  UNL1        0.0181
     14 C          68.3408   92.0260   13.7679 C.ar    1  UNL1        0.0986
     15 N          68.9302   92.9752   14.7688 N.ar    1  UNL1       -0.2423
     16 C          68.1216   93.4127   15.9540 C.ar    1  UNL1        0.0986
     17 C          66.7237   92.9012   16.1383 C.ar    1  UNL1        0.0181
     18 C          62.1551   89.7980   10.8878 C.3     1  UNL1        0.4351
     19 F          61.7085   91.0485   10.1901 F       1  UNL1       -0.1644
     20 F          63.2762   89.6486    9.9025 F       1  UNL1       -0.1644
     21 F          61.0340   89.9473   11.8731 F       1  UNL1       -0.1644
     22 N          62.2771   84.6120   11.1897 N.pl3   1  UNL1       -0.2825
     23 H          61.7402   84.5514   10.3667 H       1  UNL1        0.1551
     24 C          62.7096   83.3618   11.8968 C.ar    1  UNL1        0.0513
     25 C          64.1229   82.8769   11.7660 C.ar    1  UNL1        0.0147
     26 C          64.5554   81.6267   12.4731 C.ar    1  UNL1        0.0021
     27 C          63.5745   80.8614   13.3110 C.ar    1  UNL1        0.0115
     28 C          62.1611   81.3464   13.4418 C.ar    1  UNL1        0.0589
     29 CL         61.1801   80.5811   14.2797 Cl      1  UNL1       -0.0822
     30 C          61.7286   82.5966   12.7347 C.ar    1  UNL1        0.0261
@<TRIPOS>BOND
     1     7     8    2
     2     8     9   am
     3     9    11    1
     4    11    12    1
     5    12    13   ar
     6    13    14   ar
     7    14    15   ar
     8    15    16   ar
     9    16    17   ar
    10     8     1    1
    11     1     2   ar
    12     2     3   ar
    13     3     4   ar
    14     4    22    1
    15    22    24    1
    16    24    25   ar
    17    25    26   ar
    18    26    27   ar
    19    27    28   ar
    20    28    29    1
    21    28    30   ar
    22     4     5   ar
    23     5     6   ar
    24     6    18    1
    25    18    19    1
    26    18    20    1
    27    18    21    1
    28    17    12   ar
    29     6     1   ar
    30    30    24   ar
    31     9    10    1
    32    22    23    1
@<TRIPOS>MOLECULE
*****
 30 32 0 0 0
SMALL
GASTEIGER

@<TRIPOS>ATOM
      1 C          63.3345   86.6563   13.3703 C.ar    1  UNL1        0.0942
      2 C          63.9886   87.6566   14.2766 C.ar    1  UNL1        0.1078
      3 N          63.9545   89.1160   13.9317 N.ar    1  UNL1       -0.2119
      4 C          63.2663   89.5751   12.6804 C.ar    1  UNL1        0.2206
      5 N          62.6122   88.5747   11.7741 N.ar    1  UNL1       -0.2094
      6 C          62.6463   87.1153   12.1190 C.ar    1  UNL1        0.1613
      7 O          62.1217   84.5078   14.1845 O.2     1  UNL1       -0.2700
      8 C          63.3687   85.1969   13.7152 C.2     1  UNL1        0.2490
      9 N          64.6498   84.4266   13.5908 N.am    1  UNL1       -0.2968
     10 H          65.4682   84.8788   13.2827 H       1  UNL1        0.1501
     11 C          64.6839   82.9672   13.9357 C.3     1  UNL1        0.1167
     12 C          63.9961   81.9709   13.0499 C.ar    1  UNL1        0.0005
     13 C          63.2625   80.8106   13.6545 C.ar    1  UNL1        0.0181
     14 C          62.5748   79.8144   12.7688 C.ar    1  UNL1        0.0986
     15 N          62.6207   79.9784   11.2785 N.ar    1  UNL1       -0.2423
     16 C          63.3543   81.1387   10.6739 C.ar    1  UNL1        0.0986
     17 C          64.0420   82.1349   11.5596 C.ar    1  UNL1        0.0181
     18 C          61.9923   86.1149   11.2127 C.3     1  UNL1        0.4351
     19 F          61.3382   85.1146   10.3064 F       1  UNL1       -0.1644
     20 F          63.3255   85.4783   10.9533 F       1  UNL1       -0.1644
     21 F          60.6591   86.7516   11.4721 F       1  UNL1       -0.1644
     22 N          63.2321   91.0345   12.3355 N.pl3   1  UNL1       -0.2825
     23 H          62.3689   91.4999   12.2497 H       1  UNL1        0.1551
     24 C          64.5133   91.7847   12.1214 C.ar    1  UNL1        0.0513
     25 C          64.8870   92.2537   10.7466 C.ar    1  UNL1        0.0147
     26 C          66.1681   93.0040   10.5325 C.ar    1  UNL1        0.0021
     27 C          67.0756   93.2852   11.6933 C.ar    1  UNL1        0.0115
     28 C          66.7018   92.8162   13.0681 C.ar    1  UNL1        0.0589
     29 CL         67.6093   93.0974   14.2290 Cl      1  UNL1       -0.0822
     30 C          65.4207   92.0659   13.2822 C.ar    1  UNL1        0.0261
@<TRIPOS>BOND
     1     7     8    2
     2     8     9   am
     3     9    11    1
     4    11    12    1
     5    12    13   ar
     6    13    14   ar
     7    14    15   ar
     8    15    16   ar
     9    16    17   ar
    10     8     1    1
    11     1     2   ar
    12     2     3   ar
    13     3     4   ar
    14     4    22    1
    15    22    24    1
    16    24    25   ar
    17    25    26   ar
    18    26    27   ar
    19    27    28   ar
    20    28    29    1
    21    28    30   ar
    22     4     5   ar
    23     5     6   ar
    24     6    18    1
    25    18    19    1
    26    18    20    1
    27    18    21    1
    28    17    12   ar
    29     6     1   ar
    30    30    24   ar
    31     9    10    1
    32    22    23    1
