@<TRIPOS>MOLECULE
*****
 35 39 0 0 0
SMALL
GASTEIGER

@<TRIPOS>ATOM
      1 C          64.3042   91.4835   12.9673 C.ar    1  UNL1        0.1515
      2 N          65.0746   92.7450   12.7122 N.ar    1  UNL1       -0.2248
      3 C          66.0528   92.9259   13.8349 C.ar    1  UNL1        0.1173
      4 C          67.0730   93.9889   14.1156 C.ar    1  UNL1        0.0238
      5 C          67.9275   93.9023   15.3454 C.ar    1  UNL1        0.0223
      6 C          67.7616   92.7526   16.2945 C.ar    1  UNL1        0.1006
      7 N          66.7413   91.6895   16.0137 N.ar    1  UNL1       -0.2248
      8 C          65.8869   91.7762   14.7839 C.ar    1  UNL1        0.1666
      9 N          64.8063   90.8847   14.2477 N.ar    1  UNL1       -0.2754
     10 N          64.2860   92.0768   10.0266 N.pl3   1  UNL1       -0.3425
     11 C          63.2127   91.2163   10.6248 C.ar    1  UNL1        0.1282
     12 N          62.1303   90.6526    9.7526 N.ar    1  UNL1       -0.2295
     13 C          61.0571   89.7922   10.3508 C.ar    1  UNL1        0.1003
     14 C          61.0662   89.4956   11.8211 C.ar    1  UNL1        0.0209
     15 C          62.1486   90.0593   12.6933 C.ar    1  UNL1        0.0074
     16 C          63.2218   90.9197   12.0951 C.ar    1  UNL1        0.0657
     17 H          64.2800   92.2714    9.0615 H       1  UNL1        0.1437
     18 H          64.9964   92.4468   10.5990 H       1  UNL1        0.1437
     19 C          64.3141   89.6171   14.8808 C.ar    1  UNL1        0.0667
     20 C          63.4945   89.6745   16.1357 C.ar    1  UNL1        0.0173
     21 C          63.0023   88.4068   16.7687 C.ar    1  UNL1       -0.0011
     22 C          63.3297   87.0817   16.1469 C.ar    1  UNL1       -0.0025
     23 C          64.1493   87.0242   14.8919 C.ar    1  UNL1       -0.0011
     24 C          64.6415   88.2918   14.2588 C.ar    1  UNL1        0.0173
     25 C          62.8375   85.8140   16.7800 C.3     1  UNL1        0.1166
     26 N          62.4166   84.6600   15.9191 N.am    1  UNL1       -0.2969
     27 C          63.4530   83.7949   15.2653 C.2     1  UNL1        0.2461
     28 O          64.9102   84.0837   15.4724 O.2     1  UNL1       -0.2701
     29 H          61.4601   84.4704   15.7831 H       1  UNL1        0.1501
     30 C          63.0321   82.6409   14.4044 C.ar    1  UNL1        0.0534
     31 C          63.9132   82.1836   13.2798 C.ar    1  UNL1        0.0045
     32 C          63.4922   81.0296   12.4189 C.ar    1  UNL1        0.0001
     33 C          62.1902   80.3330   12.6826 C.ar    1  UNL1        0.0000
     34 C          61.3092   80.7902   13.8072 C.ar    1  UNL1        0.0001
     35 C          61.7301   81.9442   14.6681 C.ar    1  UNL1        0.0045
@<TRIPOS>BOND
     1    10    11    1
     2    11    12   ar
     3    12    13   ar
     4    13    14   ar
     5    14    15   ar
     6    15    16   ar
     7    16     1    1
     8     1     2   ar
     9     2     3   ar
    10     3     4   ar
    11     4     5   ar
    12     5     6   ar
    13     6     7   ar
    14     7     8   ar
    15     8     9   ar
    16     9    19    1
    17    19    20   ar
    18    20    21   ar
    19    21    22   ar
    20    22    25    1
    21    25    26    1
    22    26    27   am
    23    27    28    2
    24    27    30    1
    25    30    31   ar
    26    31    32   ar
    27    32    33   ar
    28    33    34   ar
    29    34    35   ar
    30    22    23   ar
    31    23    24   ar
    32    16    11   ar
    33     9     1   ar
    34    24    19   ar
    35     8     3   ar
    36    35    30   ar
    37    10    17    1
    38    10    18    1
    39    26    29    1
@<TRIPOS>MOLECULE
*****
 35 39 0 0 0
SMALL
GASTEIGER

@<TRIPOS>ATOM
      1 C          63.3873   86.2812   13.2306 C.ar    1  UNL1        0.1515
      2 N          64.2597   86.9210   14.2697 N.ar    1  UNL1       -0.2248
      3 C          64.2878   88.3974   14.0063 C.ar    1  UNL1        0.1173
      4 C          64.9815   89.5286   14.7055 C.ar    1  UNL1        0.0238
      5 C          64.8201   90.9327   14.2029 C.ar    1  UNL1        0.0223
      6 C          63.9650   91.2054   13.0011 C.ar    1  UNL1        0.1006
      7 N          63.2713   90.0742   12.3019 N.ar    1  UNL1       -0.2248
      8 C          63.4327   88.6702   12.8045 C.ar    1  UNL1        0.1666
      9 N          62.8762   87.3623   12.3251 N.ar    1  UNL1       -0.2754
     10 N          62.1714   84.8194   15.5512 N.pl3   1  UNL1       -0.3425
     11 C          62.4720   84.0865   14.2773 C.ar    1  UNL1        0.1282
     12 N          62.1647   82.6227   14.1638 N.ar    1  UNL1       -0.2295
     13 C          62.4653   81.8899   12.8900 C.ar    1  UNL1        0.1003
     14 C          63.0732   82.6208   11.7298 C.ar    1  UNL1        0.0209
     15 C          63.3806   84.0846   11.8434 C.ar    1  UNL1        0.0074
     16 C          63.0800   84.8174   13.1171 C.ar    1  UNL1        0.0657
     17 H          61.7724   84.3397   16.3127 H       1  UNL1        0.1437
     18 H          62.3731   85.7801   15.6257 H       1  UNL1        0.1437
     19 C          61.9679   87.1694   11.1470 C.ar    1  UNL1        0.0667
     20 C          62.5013   86.5725    9.8785 C.ar    1  UNL1        0.0173
     21 C          61.5931   86.3797    8.7004 C.ar    1  UNL1       -0.0011
     22 C          60.1514   86.7836    8.7908 C.ar    1  UNL1       -0.0025
     23 C          59.6179   87.3805   10.0593 C.ar    1  UNL1       -0.0011
     24 C          60.5261   87.5734   11.2374 C.ar    1  UNL1        0.0173
     25 C          59.2432   86.5908    7.6127 C.3     1  UNL1        0.1166
     26 N          59.0921   87.6827    6.5955 N.am    1  UNL1       -0.2969
     27 C          59.4207   89.0997    6.9619 C.2     1  UNL1        0.2461
     28 O          59.9003   89.4247    8.3455 O.2     1  UNL1       -0.2701
     29 H          58.7773   87.4694    5.6874 H       1  UNL1        0.1501
     30 C          59.2696   90.1916    5.9446 C.ar    1  UNL1        0.0534
     31 C          57.9088   90.7362    5.6253 C.ar    1  UNL1        0.0045
     32 C          57.7577   91.8282    4.6080 C.ar    1  UNL1        0.0001
     33 C          58.9674   92.3755    3.9101 C.ar    1  UNL1        0.0000
     34 C          60.3281   91.8310    4.2294 C.ar    1  UNL1        0.0001
     35 C          60.4792   90.7391    5.2467 C.ar    1  UNL1        0.0045
@<TRIPOS>BOND
     1    10    11    1
     2    11    12   ar
     3    12    13   ar
     4    13    14   ar
     5    14    15   ar
     6    15    16   ar
     7    16     1    1
     8     1     2   ar
     9     2     3   ar
    10     3     4   ar
    11     4     5   ar
    12     5     6   ar
    13     6     7   ar
    14     7     8   ar
    15     8     9   ar
    16     9    19    1
    17    19    20   ar
    18    20    21   ar
    19    21    22   ar
    20    22    25    1
    21    25    26    1
    22    26    27   am
    23    27    28    2
    24    27    30    1
    25    30    31   ar
    26    31    32   ar
    27    32    33   ar
    28    33    34   ar
    29    34    35   ar
    30    22    23   ar
    31    23    24   ar
    32    16    11   ar
    33     9     1   ar
    34    24    19   ar
    35     8     3   ar
    36    35    30   ar
    37    10    17    1
    38    10    18    1
    39    26    29    1
@<TRIPOS>MOLECULE
*****
 35 39 0 0 0
SMALL
GASTEIGER

@<TRIPOS>ATOM
      1 C          61.9823   85.9490   11.4551 C.ar    1  UNL1        0.1515
      2 N          61.8232   84.4588   11.5175 N.ar    1  UNL1       -0.2248
      3 C          62.7052   83.9440   12.6162 C.ar    1  UNL1        0.1173
      4 C          62.9580   82.5594   13.1348 C.ar    1  UNL1        0.0238
      5 C          63.9151   82.3469   14.2700 C.ar    1  UNL1        0.0223
      6 C          64.6193   83.5190   14.8867 C.ar    1  UNL1        0.1006
      7 N          64.3665   84.9036   14.3680 N.ar    1  UNL1       -0.2248
      8 C          63.4094   85.1161   13.2328 C.ar    1  UNL1        0.1666
      9 N          62.9627   86.3552   12.5152 N.ar    1  UNL1       -0.2754
     10 N          62.4298   85.6698    8.5018 N.pl3   1  UNL1       -0.3425
     11 C          61.5075   86.7315    9.0236 C.ar    1  UNL1        0.1282
     12 N          60.8089   87.6536    8.0687 N.ar    1  UNL1       -0.2295
     13 C          59.8867   88.7152    8.5905 C.ar    1  UNL1        0.1003
     14 C          59.6629   88.8548   10.0671 C.ar    1  UNL1        0.0209
     15 C          60.3615   87.9327   11.0219 C.ar    1  UNL1        0.0074
     16 C          61.2838   86.8711   10.5002 C.ar    1  UNL1        0.0657
     17 H          62.5766   85.5782    7.5326 H       1  UNL1        0.1437
     18 H          62.8883   85.0646    9.1285 H       1  UNL1        0.1437
     19 C          63.4166   87.7549   12.8066 C.ar    1  UNL1        0.0667
     20 C          63.1306   88.8552   11.8282 C.ar    1  UNL1        0.0173
     21 C          63.5845   90.2548   12.1196 C.ar    1  UNL1       -0.0011
     22 C          64.3245   90.5542   13.3895 C.ar    1  UNL1       -0.0025
     23 C          64.6106   89.4539   14.3680 C.ar    1  UNL1       -0.0011
     24 C          64.1566   88.0543   14.0766 C.ar    1  UNL1        0.0173
     25 C          64.7785   91.9539   13.6809 C.3     1  UNL1        0.1166
     26 N          65.0724   92.8973   12.5524 N.am    1  UNL1       -0.2969
     27 C          66.4769   93.0481   12.0475 C.2     1  UNL1        0.2461
     28 O          67.5872   92.2557   12.6712 O.2     1  UNL1       -0.2701
     29 H          64.3436   93.4174   12.1430 H       1  UNL1        0.1501
     30 C          66.7708   93.9915   10.9190 C.ar    1  UNL1        0.0534
     31 C          66.4421   95.4489   11.0547 C.ar    1  UNL1        0.0045
     32 C          66.7361   96.3923    9.9262 C.ar    1  UNL1        0.0001
     33 C          67.3588   95.8783    8.6620 C.ar    1  UNL1        0.0000
     34 C          67.6874   94.4211    8.5263 C.ar    1  UNL1        0.0001
     35 C          67.3935   93.4777    9.6548 C.ar    1  UNL1        0.0045
@<TRIPOS>BOND
     1    10    11    1
     2    11    12   ar
     3    12    13   ar
     4    13    14   ar
     5    14    15   ar
     6    15    16   ar
     7    16     1    1
     8     1     2   ar
     9     2     3   ar
    10     3     4   ar
    11     4     5   ar
    12     5     6   ar
    13     6     7   ar
    14     7     8   ar
    15     8     9   ar
    16     9    19    1
    17    19    20   ar
    18    20    21   ar
    19    21    22   ar
    20    22    25    1
    21    25    26    1
    22    26    27   am
    23    27    28    2
    24    27    30    1
    25    30    31   ar
    26    31    32   ar
    27    32    33   ar
    28    33    34   ar
    29    34    35   ar
    30    22    23   ar
    31    23    24   ar
    32    16    11   ar
    33     9     1   ar
    34    24    19   ar
    35     8     3   ar
    36    35    30   ar
    37    10    17    1
    38    10    18    1
    39    26    29    1
@<TRIPOS>MOLECULE
*****
 35 39 0 0 0
SMALL
GASTEIGER

@<TRIPOS>ATOM
      1 C          63.0700   90.5134   10.9052 C.ar    1  UNL1        0.1515
      2 N          63.4355   91.7982   10.2227 N.ar    1  UNL1       -0.2248
      3 C          64.4926   92.4750   11.0440 C.ar    1  UNL1        0.1173
      4 C          65.2302   93.7683   10.8619 C.ar    1  UNL1        0.0238
      5 C          66.2557   94.1951   11.8699 C.ar    1  UNL1        0.0223
      6 C          66.5436   93.3286   13.0600 C.ar    1  UNL1        0.1006
      7 N          65.8059   92.0353   13.2421 N.ar    1  UNL1       -0.2248
      8 C          64.7805   91.6085   12.2341 C.ar    1  UNL1        0.1666
      9 N          63.9013   90.3962   12.1483 N.ar    1  UNL1       -0.2754
     10 N          60.1870   90.8361   11.6692 N.pl3   1  UNL1       -0.3425
     11 C          60.6106   89.6816   10.8103 C.ar    1  UNL1        0.1282
     12 N          59.5926   88.6884   10.3334 N.ar    1  UNL1       -0.2295
     13 C          60.0162   87.5340    9.4745 C.ar    1  UNL1        0.1003
     14 C          61.4577   87.3726    9.0925 C.ar    1  UNL1        0.0209
     15 C          62.4756   88.3658    9.5694 C.ar    1  UNL1        0.0074
     16 C          62.0521   89.5203   10.4283 C.ar    1  UNL1        0.0657
     17 H          59.2408   90.9420   11.9200 H       1  UNL1        0.1437
     18 H          60.8551   91.4879   11.9822 H       1  UNL1        0.1437
     19 C          63.8605   89.2652   13.1328 C.ar    1  UNL1        0.0667
     20 C          63.5754   87.8702   12.6612 C.ar    1  UNL1        0.0173
     21 C          63.5347   86.7392   13.6457 C.ar    1  UNL1       -0.0011
     22 C          63.7790   87.0033   15.1019 C.ar    1  UNL1       -0.0025
     23 C          64.0641   88.3984   15.5736 C.ar    1  UNL1       -0.0011
     24 C          64.1048   89.5293   14.5891 C.ar    1  UNL1        0.0173
     25 C          63.7382   85.8723   16.0864 C.3     1  UNL1        0.1166
     26 N          63.0779   84.5778   15.7146 N.am    1  UNL1       -0.2969
     27 C          63.7268   83.6642   14.7174 C.2     1  UNL1        0.2461
     28 O          65.0359   84.0451   14.0921 O.2     1  UNL1       -0.2701
     29 H          62.2187   84.3278   16.1251 H       1  UNL1        0.1501
     30 C          63.0665   82.3697   14.3457 C.ar    1  UNL1        0.0534
     31 C          61.5836   82.2105   14.5074 C.ar    1  UNL1        0.0045
     32 C          60.9233   80.9160   14.1357 C.ar    1  UNL1        0.0001
     33 C          61.7458   79.7806   13.6022 C.ar    1  UNL1        0.0000
     34 C          63.2286   79.9398   13.4405 C.ar    1  UNL1        0.0001
     35 C          63.8889   81.2343   13.8123 C.ar    1  UNL1        0.0045
@<TRIPOS>BOND
     1    10    11    1
     2    11    12   ar
     3    12    13   ar
     4    13    14   ar
     5    14    15   ar
     6    15    16   ar
     7    16     1    1
     8     1     2   ar
     9     2     3   ar
    10     3     4   ar
    11     4     5   ar
    12     5     6   ar
    13     6     7   ar
    14     7     8   ar
    15     8     9   ar
    16     9    19    1
    17    19    20   ar
    18    20    21   ar
    19    21    22   ar
    20    22    25    1
    21    25    26    1
    22    26    27   am
    23    27    28    2
    24    27    30    1
    25    30    31   ar
    26    31    32   ar
    27    32    33   ar
    28    33    34   ar
    29    34    35   ar
    30    22    23   ar
    31    23    24   ar
    32    16    11   ar
    33     9     1   ar
    34    24    19   ar
    35     8     3   ar
    36    35    30   ar
    37    10    17    1
    38    10    18    1
    39    26    29    1
@<TRIPOS>MOLECULE
*****
 35 39 0 0 0
SMALL
GASTEIGER

@<TRIPOS>ATOM
      1 C          63.4200   87.0986   13.0647 C.ar    1  UNL1        0.1515
      2 N          64.0742   86.1006   13.9734 N.ar    1  UNL1       -0.2248
      3 C          63.7032   84.7273   13.4975 C.ar    1  UNL1        0.1173
      4 C          64.0557   83.3602   14.0041 C.ar    1  UNL1        0.0238
      5 C          63.5247   82.1424   13.3078 C.ar    1  UNL1        0.0223
      6 C          62.6411   82.2917   12.1049 C.ar    1  UNL1        0.1006
      7 N          62.2886   83.6588   11.5983 N.ar    1  UNL1       -0.2248
      8 C          62.8196   84.8766   12.2946 C.ar    1  UNL1        0.1666
      9 N          62.6446   86.3422   12.0271 N.ar    1  UNL1       -0.2754
     10 N          63.5488   88.3991   15.7651 N.pl3   1  UNL1       -0.3425
     11 C          63.5874   89.2413   14.5244 C.ar    1  UNL1        0.1282
     12 N          63.6905   90.7337   14.6339 N.ar    1  UNL1       -0.2295
     13 C          63.7291   91.5759   13.3933 C.ar    1  UNL1        0.1003
     14 C          63.6647   90.9257   12.0432 C.ar    1  UNL1        0.0209
     15 C          63.5617   89.4333   11.9336 C.ar    1  UNL1        0.0074
     16 C          63.5230   88.5911   13.1742 C.ar    1  UNL1        0.0657
     17 H          63.5911   88.8259   16.6513 H       1  UNL1        0.1437
     18 H          63.4812   87.4196   15.6932 H       1  UNL1        0.1437
     19 C          61.8361   86.9453   10.9169 C.ar    1  UNL1        0.0667
     20 C          62.1003   86.5476    9.4950 C.ar    1  UNL1        0.0173
     21 C          61.2917   87.1507    8.3848 C.ar    1  UNL1       -0.0011
     22 C          60.2190   88.1517    8.6966 C.ar    1  UNL1       -0.0025
     23 C          59.9547   88.5495   10.1185 C.ar    1  UNL1       -0.0011
     24 C          60.7633   87.9464   11.2287 C.ar    1  UNL1        0.0173
     25 C          59.4105   88.7549    7.5864 C.3     1  UNL1        0.1166
     26 N          60.0885   89.5552    6.5141 N.am    1  UNL1       -0.2969
     27 C          59.2937   90.5145    5.6785 C.2     1  UNL1        0.2461
     28 O          57.8211   90.6735    5.9153 O.2     1  UNL1       -0.2701
     29 H          61.0550   89.4509    6.3587 H       1  UNL1        0.1501
     30 C          59.9717   91.3149    4.6063 C.ar    1  UNL1        0.0534
     31 C          61.4332   91.1162    4.3329 C.ar    1  UNL1        0.0045
     32 C          62.1112   91.9165    3.2606 C.ar    1  UNL1        0.0001
     33 C          61.3277   92.9155    2.4617 C.ar    1  UNL1        0.0000
     34 C          59.8663   93.1142    2.7351 C.ar    1  UNL1        0.0001
     35 C          59.1883   92.3139    3.8073 C.ar    1  UNL1        0.0045
@<TRIPOS>BOND
     1    10    11    1
     2    11    12   ar
     3    12    13   ar
     4    13    14   ar
     5    14    15   ar
     6    15    16   ar
     7    16     1    1
     8     1     2   ar
     9     2     3   ar
    10     3     4   ar
    11     4     5   ar
    12     5     6   ar
    13     6     7   ar
    14     7     8   ar
    15     8     9   ar
    16     9    19    1
    17    19    20   ar
    18    20    21   ar
    19    21    22   ar
    20    22    25    1
    21    25    26    1
    22    26    27   am
    23    27    28    2
    24    27    30    1
    25    30    31   ar
    26    31    32   ar
    27    32    33   ar
    28    33    34   ar
    29    34    35   ar
    30    22    23   ar
    31    23    24   ar
    32    16    11   ar
    33     9     1   ar
    34    24    19   ar
    35     8     3   ar
    36    35    30   ar
    37    10    17    1
    38    10    18    1
    39    26    29    1
@<TRIPOS>MOLECULE
*****
 35 39 0 0 0
SMALL
GASTEIGER

@<TRIPOS>ATOM
      1 C          61.9144   85.9693   10.6521 C.ar    1  UNL1        0.1515
      2 N          60.9772   85.2885    9.6992 N.ar    1  UNL1       -0.2248
      3 C          60.3212   86.3447    8.8600 C.ar    1  UNL1        0.1173
      4 C          59.3083   86.2644    7.7566 C.ar    1  UNL1        0.0238
      5 C          58.8274   87.5178    7.0875 C.ar    1  UNL1        0.0223
      6 C          59.3592   88.8514    7.5217 C.ar    1  UNL1        0.1006
      7 N          60.3721   88.9317    8.6252 N.ar    1  UNL1       -0.2248
      8 C          60.8531   87.6783    9.2943 C.ar    1  UNL1        0.1666
      9 N          61.8377   87.4463   10.4019 N.ar    1  UNL1       -0.2754
     10 N          63.7728   83.7642    9.8251 N.pl3   1  UNL1       -0.3425
     11 C          63.7061   84.1895   11.2621 C.ar    1  UNL1        0.1282
     12 N          64.5686   83.5123   12.2855 N.ar    1  UNL1       -0.2295
     13 C          64.5019   83.9375   13.7224 C.ar    1  UNL1        0.1003
     14 C          63.5727   85.0401   14.1358 C.ar    1  UNL1        0.0209
     15 C          62.7102   85.7173   13.1124 C.ar    1  UNL1        0.0074
     16 C          62.7769   85.2921   11.6755 C.ar    1  UNL1        0.0657
     17 H          64.3827   83.0405    9.5538 H       1  UNL1        0.1437
     18 H          63.2067   84.2087    9.1534 H       1  UNL1        0.1437
     19 C          62.6101   88.5054   11.1311 C.ar    1  UNL1        0.0667
     20 C          62.7902   89.8608   10.5146 C.ar    1  UNL1        0.0173
     21 C          63.5626   90.9199   11.2439 C.ar    1  UNL1       -0.0011
     22 C          64.1549   90.6235   12.5898 C.ar    1  UNL1       -0.0025
     23 C          63.9747   89.2680   13.2063 C.ar    1  UNL1       -0.0011
     24 C          63.2024   88.2089   12.4771 C.ar    1  UNL1        0.0173
     25 C          64.9272   91.6826   13.3190 C.3     1  UNL1        0.1166
     26 N          65.2764   92.9667   12.6270 N.am    1  UNL1       -0.2969
     27 C          66.2991   92.9733   11.5297 C.2     1  UNL1        0.2461
     28 O          66.9726   91.6957   11.1245 O.2     1  UNL1       -0.2701
     29 H          64.8343   93.8053   12.8929 H       1  UNL1        0.1501
     30 C          66.6483   94.2575   10.8376 C.ar    1  UNL1        0.0534
     31 C          67.3310   94.2283    9.5022 C.ar    1  UNL1        0.0045
     32 C          67.6801   95.5125    8.8101 C.ar    1  UNL1        0.0001
     33 C          67.3466   96.8258    9.4535 C.ar    1  UNL1        0.0000
     34 C          66.6639   96.8551   10.7888 C.ar    1  UNL1        0.0001
     35 C          66.3148   95.5709   11.4809 C.ar    1  UNL1        0.0045
@<TRIPOS>BOND
     1    10    11    1
     2    11    12   ar
     3    12    13   ar
     4    13    14   ar
     5    14    15   ar
     6    15    16   ar
     7    16     1    1
     8     1     2   ar
     9     2     3   ar
    10     3     4   ar
    11     4     5   ar
    12     5     6   ar
    13     6     7   ar
    14     7     8   ar
    15     8     9   ar
    16     9    19    1
    17    19    20   ar
    18    20    21   ar
    19    21    22   ar
    20    22    25    1
    21    25    26    1
    22    26    27   am
    23    27    28    2
    24    27    30    1
    25    30    31   ar
    26    31    32   ar
    27    32    33   ar
    28    33    34   ar
    29    34    35   ar
    30    22    23   ar
    31    23    24   ar
    32    16    11   ar
    33     9     1   ar
    34    24    19   ar
    35     8     3   ar
    36    35    30   ar
    37    10    17    1
    38    10    18    1
    39    26    29    1
@<TRIPOS>MOLECULE
*****
 35 39 0 0 0
SMALL
GASTEIGER

@<TRIPOS>ATOM
      1 C          60.9407   94.2720    0.2066 C.ar    1  UNL1        0.1515
      2 N          61.8743   95.1852   -0.5312 N.ar    1  UNL1       -0.2248
      3 C          63.0878   95.3976    0.3246 C.ar    1  UNL1        0.1173
      4 C          64.3362   96.2019    0.1140 C.ar    1  UNL1        0.0238
      5 C          65.4010   96.2243    1.1703 C.ar    1  UNL1        0.0223
      6 C          65.2174   95.4423    2.4371 C.ar    1  UNL1        0.1006
      7 N          63.9690   94.6380    2.6476 N.ar    1  UNL1       -0.2248
      8 C          62.9042   94.6156    1.5914 C.ar    1  UNL1        0.1666
      9 N          61.5772   93.9200    1.5185 N.ar    1  UNL1       -0.2754
     10 N          58.6406   96.1887    0.0165 N.pl3   1  UNL1       -0.3425
     11 C          58.4551   94.7530   -0.3767 C.ar    1  UNL1        0.1282
     12 N          57.1195   94.2757   -0.8649 N.ar    1  UNL1       -0.2295
     13 C          56.9340   92.8401   -1.2581 C.ar    1  UNL1        0.1003
     14 C          58.0840   91.8818   -1.1630 C.ar    1  UNL1        0.0209
     15 C          59.4196   92.3591   -0.6748 C.ar    1  UNL1        0.0074
     16 C          59.6051   93.7947   -0.2816 C.ar    1  UNL1        0.0657
     17 H          57.8857   96.8176   -0.0459 H       1  UNL1        0.1437
     18 H          59.5171   96.5020    0.3370 H       1  UNL1        0.1437
     19 C          60.9899   93.0288    2.5724 C.ar    1  UNL1        0.0667
     20 C          61.8470   91.9993    3.2471 C.ar    1  UNL1        0.0173
     21 C          61.2597   91.1081    4.3010 C.ar    1  UNL1       -0.0011
     22 C          59.8151   91.2464    4.6803 C.ar    1  UNL1       -0.0025
     23 C          58.9578   92.2759    4.0057 C.ar    1  UNL1       -0.0011
     24 C          59.5451   93.1671    2.9517 C.ar    1  UNL1        0.0173
     25 C          59.2277   90.3552    5.7343 C.3     1  UNL1        0.1166
     26 N          60.0782   89.8821    6.8757 N.am    1  UNL1       -0.2969
     27 C          59.6474   88.6999    7.6922 C.2     1  UNL1        0.2461
     28 O          58.3662   87.9908    7.3674 O.2     1  UNL1       -0.2701
     29 H          60.9192   90.3475    7.0888 H       1  UNL1        0.1501
     30 C          60.4980   88.2268    8.8336 C.ar    1  UNL1        0.0534
     31 C          61.3081   89.2115    9.6238 C.ar    1  UNL1        0.0045
     32 C          62.1586   88.7385   10.7652 C.ar    1  UNL1        0.0001
     33 C          62.1990   87.2807   11.1164 C.ar    1  UNL1        0.0000
     34 C          61.3889   86.2960   10.3264 C.ar    1  UNL1        0.0001
     35 C          60.5384   86.7691    9.1850 C.ar    1  UNL1        0.0045
@<TRIPOS>BOND
     1    10    11    1
     2    11    12   ar
     3    12    13   ar
     4    13    14   ar
     5    14    15   ar
     6    15    16   ar
     7    16     1    1
     8     1     2   ar
     9     2     3   ar
    10     3     4   ar
    11     4     5   ar
    12     5     6   ar
    13     6     7   ar
    14     7     8   ar
    15     8     9   ar
    16     9    19    1
    17    19    20   ar
    18    20    21   ar
    19    21    22   ar
    20    22    25    1
    21    25    26    1
    22    26    27   am
    23    27    28    2
    24    27    30    1
    25    30    31   ar
    26    31    32   ar
    27    32    33   ar
    28    33    34   ar
    29    34    35   ar
    30    22    23   ar
    31    23    24   ar
    32    16    11   ar
    33     9     1   ar
    34    24    19   ar
    35     8     3   ar
    36    35    30   ar
    37    10    17    1
    38    10    18    1
    39    26    29    1
@<TRIPOS>MOLECULE
*****
 35 39 0 0 0
SMALL
GASTEIGER

@<TRIPOS>ATOM
      1 C          64.8085   89.5886   14.9008 C.ar    1  UNL1        0.1515
      2 N          65.8206   90.3731   15.6820 N.ar    1  UNL1       -0.2248
      3 C          66.1268   91.6264   14.9167 C.ar    1  UNL1        0.1173
      4 C          67.0486   92.7753   15.1998 C.ar    1  UNL1        0.0238
      5 C          67.1476   93.9142   14.2287 C.ar    1  UNL1        0.0223
      6 C          66.3248   93.9042   12.9746 C.ar    1  UNL1        0.1006
      7 N          65.4030   92.7553   12.6915 N.ar    1  UNL1       -0.2248
      8 C          65.3040   91.6163   13.6625 C.ar    1  UNL1        0.1666
      9 N          64.4893   90.3569   13.6528 N.ar    1  UNL1       -0.2754
     10 N          62.8014   89.4499   17.1263 N.pl3   1  UNL1       -0.3425
     11 C          63.2156   88.1983   16.4107 C.ar    1  UNL1        0.1282
     12 N          62.6263   86.8774   16.8079 N.ar    1  UNL1       -0.2295
     13 C          63.0404   85.6258   16.0924 C.ar    1  UNL1        0.1003
     14 C          64.0439   85.6951   14.9798 C.ar    1  UNL1        0.0209
     15 C          64.6333   87.0161   14.5826 C.ar    1  UNL1        0.0074
     16 C          64.2191   88.2677   15.2980 C.ar    1  UNL1        0.0657
     17 H          62.1427   89.4044   17.8566 H       1  UNL1        0.1437
     18 H          63.1882   90.3169   16.8656 H       1  UNL1        0.1437
     19 C          63.5246   89.9393   12.5827 C.ar    1  UNL1        0.0667
     20 C          62.7733   90.9775   11.8034 C.ar    1  UNL1        0.0173
     21 C          61.8086   90.5598   10.7333 C.ar    1  UNL1       -0.0011
     22 C          61.5953   89.1038   10.4426 C.ar    1  UNL1       -0.0025
     23 C          62.3467   88.0655   11.2219 C.ar    1  UNL1       -0.0011
     24 C          63.3113   88.4832   12.2920 C.ar    1  UNL1        0.0173
     25 C          60.6307   88.6861    9.3726 C.3     1  UNL1        0.1166
     26 N          60.2240   89.6607    8.3074 N.am    1  UNL1       -0.2969
     27 C          59.4565   89.1854    7.1094 C.2     1  UNL1        0.2461
     28 O          59.0956   87.7355    6.9768 O.2     1  UNL1       -0.2701
     29 H          60.4608   90.6124    8.3945 H       1  UNL1        0.1501
     30 C          59.0498   90.1601    6.0442 C.ar    1  UNL1        0.0534
     31 C          60.0963   90.8547    5.2241 C.ar    1  UNL1        0.0045
     32 C          59.6896   91.8294    4.1589 C.ar    1  UNL1        0.0001
     33 C          58.2364   92.1094    3.9138 C.ar    1  UNL1        0.0000
     34 C          57.1900   91.4147    4.7339 C.ar    1  UNL1        0.0001
     35 C          57.5967   90.4401    5.7991 C.ar    1  UNL1        0.0045
@<TRIPOS>BOND
     1    10    11    1
     2    11    12   ar
     3    12    13   ar
     4    13    14   ar
     5    14    15   ar
     6    15    16   ar
     7    16     1    1
     8     1     2   ar
     9     2     3   ar
    10     3     4   ar
    11     4     5   ar
    12     5     6   ar
    13     6     7   ar
    14     7     8   ar
    15     8     9   ar
    16     9    19    1
    17    19    20   ar
    18    20    21   ar
    19    21    22   ar
    20    22    25    1
    21    25    26    1
    22    26    27   am
    23    27    28    2
    24    27    30    1
    25    30    31   ar
    26    31    32   ar
    27    32    33   ar
    28    33    34   ar
    29    34    35   ar
    30    22    23   ar
    31    23    24   ar
    32    16    11   ar
    33     9     1   ar
    34    24    19   ar
    35     8     3   ar
    36    35    30   ar
    37    10    17    1
    38    10    18    1
    39    26    29    1
@<TRIPOS>MOLECULE
*****
 35 39 0 0 0
SMALL
GASTEIGER

@<TRIPOS>ATOM
      1 C          63.4921   87.6822   12.8499 C.ar    1  UNL1        0.1515
      2 N          64.2747   87.1841   14.0286 N.ar    1  UNL1       -0.2248
      3 C          64.0258   85.7108   14.1612 C.ar    1  UNL1        0.1173
      4 C          64.5310   84.6916   15.1389 C.ar    1  UNL1        0.0238
      5 C          64.0997   83.2599   15.0197 C.ar    1  UNL1        0.0223
      6 C          63.1633   82.8475   13.9229 C.ar    1  UNL1        0.1006
      7 N          62.6582   83.8667   12.9452 N.ar    1  UNL1       -0.2248
      8 C          63.0895   85.2984   13.0643 C.ar    1  UNL1        0.1666
      9 N          62.7596   86.5168   12.2540 N.ar    1  UNL1       -0.2754
     10 N          64.5114   89.9097   14.5819 N.pl3   1  UNL1       -0.3425
     11 C          63.9591   90.2110   13.2201 C.ar    1  UNL1        0.1282
     12 N          63.9165   91.6261   12.7244 N.ar    1  UNL1       -0.2295
     13 C          63.3642   91.9275   11.3628 C.ar    1  UNL1        0.1003
     14 C          62.8546   90.8138   10.4969 C.ar    1  UNL1        0.0209
     15 C          62.8972   89.3987   10.9926 C.ar    1  UNL1        0.0074
     16 C          63.4495   89.0973   12.3542 C.ar    1  UNL1        0.0657
     17 H          64.8459   90.6406   15.1502 H       1  UNL1        0.1437
     18 H          64.5394   88.9809   14.9072 H       1  UNL1        0.1437
     19 C          61.8558   86.5618   11.0576 C.ar    1  UNL1        0.0667
     20 C          60.5395   87.2764   11.1384 C.ar    1  UNL1        0.0173
     21 C          59.6358   87.3214    9.9421 C.ar    1  UNL1       -0.0011
     22 C          60.0484   86.6518    8.6648 C.ar    1  UNL1       -0.0025
     23 C          61.3647   85.9372    8.5840 C.ar    1  UNL1       -0.0011
     24 C          62.2685   85.8921    9.7803 C.ar    1  UNL1        0.0173
     25 C          59.1446   86.6968    7.4685 C.3     1  UNL1        0.1166
     26 N          59.3024   87.7866    6.4499 N.am    1  UNL1       -0.2969
     27 C          59.3994   89.2170    6.8910 C.2     1  UNL1        0.2461
     28 O          59.3385   89.5576    8.3505 O.2     1  UNL1       -0.2701
     29 H          59.3424   87.5630    5.4920 H       1  UNL1        0.1501
     30 C          59.5572   90.3068    5.8724 C.ar    1  UNL1        0.0534
     31 C          58.3635   91.1030    5.4348 C.ar    1  UNL1        0.0045
     32 C          58.5213   92.1928    4.4162 C.ar    1  UNL1        0.0001
     33 C          59.8728   92.4863    3.8352 C.ar    1  UNL1        0.0000
     34 C          61.0663   91.6901    4.2728 C.ar    1  UNL1        0.0001
     35 C          60.9085   90.6004    5.2913 C.ar    1  UNL1        0.0045
@<TRIPOS>BOND
     1    10    11    1
     2    11    12   ar
     3    12    13   ar
     4    13    14   ar
     5    14    15   ar
     6    15    16   ar
     7    16     1    1
     8     1     2   ar
     9     2     3   ar
    10     3     4   ar
    11     4     5   ar
    12     5     6   ar
    13     6     7   ar
    14     7     8   ar
    15     8     9   ar
    16     9    19    1
    17    19    20   ar
    18    20    21   ar
    19    21    22   ar
    20    22    25    1
    21    25    26    1
    22    26    27   am
    23    27    28    2
    24    27    30    1
    25    30    31   ar
    26    31    32   ar
    27    32    33   ar
    28    33    34   ar
    29    34    35   ar
    30    22    23   ar
    31    23    24   ar
    32    16    11   ar
    33     9     1   ar
    34    24    19   ar
    35     8     3   ar
    36    35    30   ar
    37    10    17    1
    38    10    18    1
    39    26    29    1
