@<TRIPOS>MOLECULE
*****
 31 33 0 0 0
SMALL
GASTEIGER

@<TRIPOS>ATOM
      1 C          64.3635   91.1848   14.2170 C.ar    1  UNL1        0.1329
      2 N          65.0451   91.6115   15.4832 N.ar    1  UNL1       -0.1993
      3 C          66.1100   92.6671   15.4427 C.ar    1  UNL1        0.2148
      4 N          66.7916   93.0938   16.7090 N.pl3   1  UNL1       -0.3274
      5 N          66.4934   93.2960   14.1360 N.ar    1  UNL1       -0.2139
      6 C          65.8118   92.8693   12.8697 C.ar    1  UNL1        0.0870
      7 C          66.1951   93.4982   11.5630 C.ar    1  UNL1        0.0193
      8 C          65.5135   93.0714   10.2968 C.ar    1  UNL1        0.0017
      9 C          64.4486   92.0158   10.3373 C.ar    1  UNL1        0.0047
     10 C          64.0653   91.3870   11.6440 C.ar    1  UNL1        0.0575
     11 C          64.7468   91.8137   12.9102 C.ar    1  UNL1        0.0535
     12 H          66.5400   92.6810   17.5666 H       1  UNL1        0.1452
     13 H          67.4906   93.7866   16.6824 H       1  UNL1        0.1452
     14 C          63.0003   90.3314   11.6845 C.2     1  UNL1        0.2462
     15 O          63.3547   88.9224   12.0573 O.2     1  UNL1       -0.2701
     16 N          61.5810   90.6848   11.3521 N.am    1  UNL1       -0.2987
     17 H          61.3483   91.6096   11.1074 H       1  UNL1        0.1500
     18 C          60.5160   89.6292   11.3926 C.3     1  UNL1        0.0944
     19 C          59.5158   89.6154   12.5104 C.3     1  UNL1        0.0262
     20 C          60.4513   88.5874   10.3154 C.ar    1  UNL1       -0.0045
     21 C          60.9053   87.1861   10.5989 C.ar    1  UNL1       -0.0027
     22 C          60.8406   86.1443    9.5217 C.ar    1  UNL1       -0.0003
     23 C          60.3219   86.5038    8.1609 C.ar    1  UNL1       -0.0000
     24 C          59.8679   87.9050    7.8773 C.ar    1  UNL1       -0.0003
     25 C          59.9327   88.9468    8.9546 C.ar    1  UNL1       -0.0027
     26 N          63.2986   90.1292   14.2575 N.pl3   1  UNL1       -0.3180
     27 H          62.9180   89.7814   13.4187 H       1  UNL1        0.1482
     28 C          62.8135   89.6034   15.5758 C.3     1  UNL1        0.0882
     29 C          63.4484   88.3844   16.1767 C.3     1  UNL1        0.0212
     30 C          62.7141   86.2760   17.5053 C.3     1  UNL1        0.0001
     31 C          62.8635   87.7656   17.4116 C.3     1  UNL1        0.0017
@<TRIPOS>BOND
     1    30    31    1
     2    31    29    1
     3    29    28    1
     4    28    26    1
     5    26     1    1
     6     1     2   ar
     7     2     3   ar
     8     3     4    1
     9     3     5   ar
    10     5     6   ar
    11     6     7   ar
    12     7     8   ar
    13     8     9   ar
    14     9    10   ar
    15    10    14    1
    16    14    15    2
    17    14    16   am
    18    16    18    1
    19    18    19    1
    20    18    20    1
    21    20    21   ar
    22    21    22   ar
    23    22    23   ar
    24    23    24   ar
    25    24    25   ar
    26    10    11   ar
    27    11     1   ar
    28    11     6   ar
    29    25    20   ar
    30    26    27    1
    31     4    12    1
    32     4    13    1
    33    16    17    1
@<TRIPOS>MOLECULE
*****
 31 33 0 0 0
SMALL
GASTEIGER

@<TRIPOS>ATOM
      1 C          64.2306   90.6787   14.2841 C.ar    1  UNL1        0.1329
      2 N          64.9935   91.2049   15.4635 N.ar    1  UNL1       -0.1993
      3 C          65.8997   92.3894   15.3027 C.ar    1  UNL1        0.2148
      4 N          66.6626   92.9156   16.4822 N.pl3   1  UNL1       -0.3274
      5 N          66.0429   93.0477   13.9626 N.ar    1  UNL1       -0.2139
      6 C          65.2800   92.5215   12.7831 C.ar    1  UNL1        0.0870
      7 C          65.4232   93.1798   11.4429 C.ar    1  UNL1        0.0193
      8 C          64.6603   92.6536   10.2635 C.ar    1  UNL1        0.0017
      9 C          63.7541   91.4691   10.4243 C.ar    1  UNL1        0.0047
     10 C          63.6109   90.8108   11.7645 C.ar    1  UNL1        0.0575
     11 C          64.3738   91.3370   12.9439 C.ar    1  UNL1        0.0535
     12 H          66.5686   92.4835   17.3619 H       1  UNL1        0.1452
     13 H          67.2574   93.6930   16.3768 H       1  UNL1        0.1452
     14 C          62.7047   89.6263   11.9252 C.2     1  UNL1        0.2462
     15 O          61.4539   89.7447   12.7446 O.2     1  UNL1       -0.2701
     16 N          63.0493   88.3235   11.2666 N.am    1  UNL1       -0.2987
     17 H          63.8703   88.2458   10.7289 H       1  UNL1        0.1500
     18 C          62.1432   87.1390   11.4274 C.3     1  UNL1        0.0944
     19 C          60.6868   87.2574   11.0882 C.3     1  UNL1        0.0262
     20 C          62.6933   85.8362   11.9273 C.ar    1  UNL1       -0.0045
     21 C          62.4910   84.5815   11.1306 C.ar    1  UNL1       -0.0027
     22 C          63.0411   83.2787   11.6305 C.ar    1  UNL1       -0.0003
     23 C          63.7937   83.2305   12.9272 C.ar    1  UNL1       -0.0000
     24 C          63.9960   84.4852   13.7240 C.ar    1  UNL1       -0.0003
     25 C          63.4458   85.7881   13.2240 C.ar    1  UNL1       -0.0027
     26 N          63.3244   89.4942   14.4449 N.pl3   1  UNL1       -0.3180
     27 H          62.5278   89.4027   13.8736 H       1  UNL1        0.1482
     28 C          63.6319   88.4491   15.4760 C.3     1  UNL1        0.0882
     29 C          63.0648   88.5707   16.8593 C.3     1  UNL1        0.0212
     30 C          62.9207   85.9827   17.0369 C.3     1  UNL1        0.0001
     31 C          62.7849   87.3375   17.6662 C.3     1  UNL1        0.0017
@<TRIPOS>BOND
     1    30    31    1
     2    31    29    1
     3    29    28    1
     4    28    26    1
     5    26     1    1
     6     1     2   ar
     7     2     3   ar
     8     3     4    1
     9     3     5   ar
    10     5     6   ar
    11     6     7   ar
    12     7     8   ar
    13     8     9   ar
    14     9    10   ar
    15    10    14    1
    16    14    15    2
    17    14    16   am
    18    16    18    1
    19    18    19    1
    20    18    20    1
    21    20    21   ar
    22    21    22   ar
    23    22    23   ar
    24    23    24   ar
    25    24    25   ar
    26    10    11   ar
    27    11     1   ar
    28    11     6   ar
    29    25    20   ar
    30    26    27    1
    31     4    12    1
    32     4    13    1
    33    16    17    1
@<TRIPOS>MOLECULE
*****
 31 33 0 0 0
SMALL
GASTEIGER

@<TRIPOS>ATOM
      1 C          64.0301   90.8465   14.1154 C.ar    1  UNL1        0.1329
      2 N          64.6455   91.2360   15.4267 N.ar    1  UNL1       -0.1993
      3 C          65.6502   92.3484   15.4827 C.ar    1  UNL1        0.2148
      4 N          66.2657   92.7378   16.7940 N.pl3   1  UNL1       -0.3274
      5 N          66.0395   93.0713   14.2274 N.ar    1  UNL1       -0.2139
      6 C          65.4240   92.6818   12.9160 C.ar    1  UNL1        0.0870
      7 C          65.8133   93.4047   11.6607 C.ar    1  UNL1        0.0193
      8 C          65.1979   93.0153   10.3494 C.ar    1  UNL1        0.0017
      9 C          64.1932   91.9029   10.2934 C.ar    1  UNL1        0.0047
     10 C          63.8039   91.1799   11.5487 C.ar    1  UNL1        0.0575
     11 C          64.4193   91.5694   12.8600 C.ar    1  UNL1        0.0535
     12 H          66.0102   92.2633   17.6179 H       1  UNL1        0.1452
     13 H          66.9251   93.4679   16.8308 H       1  UNL1        0.1452
     14 C          62.7992   90.0676   11.4927 C.2     1  UNL1        0.2462
     15 O          61.4385   90.2548   12.0955 O.2     1  UNL1       -0.2701
     16 N          63.1552   88.7679   10.8340 N.am    1  UNL1       -0.2987
     17 H          64.0482   88.6449   10.4383 H       1  UNL1        0.1500
     18 C          62.1504   87.6555   10.7780 C.3     1  UNL1        0.0944
     19 C          62.1372   86.6024   11.8461 C.3     1  UNL1        0.0262
     20 C          61.1590   87.5961    9.6539 C.ar    1  UNL1       -0.0045
     21 C          60.5789   88.8627    9.0979 C.ar    1  UNL1       -0.0027
     22 C          59.5875   88.8034    7.9739 C.ar    1  UNL1       -0.0003
     23 C          59.1762   87.4774    7.4058 C.ar    1  UNL1       -0.0000
     24 C          59.7563   86.2108    7.9618 C.ar    1  UNL1       -0.0003
     25 C          60.7478   86.2702    9.0859 C.ar    1  UNL1       -0.0027
     26 N          63.0254   89.7341   14.0594 N.pl3   1  UNL1       -0.3180
     27 H          62.2183   89.8273   13.5034 H       1  UNL1        0.1482
     28 C          63.2503   88.4798   14.8506 C.3     1  UNL1        0.0882
     29 C          64.4870   87.6617   14.6240 C.3     1  UNL1        0.0212
     30 C          63.7196   85.6413   16.0659 C.3     1  UNL1        0.0001
     31 C          64.4673   86.1846   14.8845 C.3     1  UNL1        0.0017
@<TRIPOS>BOND
     1    30    31    1
     2    31    29    1
     3    29    28    1
     4    28    26    1
     5    26     1    1
     6     1     2   ar
     7     2     3   ar
     8     3     4    1
     9     3     5   ar
    10     5     6   ar
    11     6     7   ar
    12     7     8   ar
    13     8     9   ar
    14     9    10   ar
    15    10    14    1
    16    14    15    2
    17    14    16   am
    18    16    18    1
    19    18    19    1
    20    18    20    1
    21    20    21   ar
    22    21    22   ar
    23    22    23   ar
    24    23    24   ar
    25    24    25   ar
    26    10    11   ar
    27    11     1   ar
    28    11     6   ar
    29    25    20   ar
    30    26    27    1
    31     4    12    1
    32     4    13    1
    33    16    17    1
@<TRIPOS>MOLECULE
*****
 31 33 0 0 0
SMALL
GASTEIGER

@<TRIPOS>ATOM
      1 C          63.1473   87.6581   12.3926 C.ar    1  UNL1        0.1329
      2 N          63.2257   86.2286   12.8403 N.ar    1  UNL1       -0.1993
      3 C          62.4237   85.1763   12.1336 C.ar    1  UNL1        0.2148
      4 N          62.5022   83.7468   12.5813 N.pl3   1  UNL1       -0.3274
      5 N          61.5431   85.5535   10.9794 N.ar    1  UNL1       -0.2139
      6 C          61.4646   86.9830   10.5317 C.ar    1  UNL1        0.0870
      7 C          60.5841   87.3601    9.3774 C.ar    1  UNL1        0.0193
      8 C          60.5056   88.7896    8.9298 C.ar    1  UNL1        0.0017
      9 C          61.3077   89.8419    9.6364 C.ar    1  UNL1        0.0047
     10 C          62.1882   89.4648   10.7907 C.ar    1  UNL1        0.0575
     11 C          62.2667   88.0353   11.2383 C.ar    1  UNL1        0.0535
     12 H          63.0801   83.4992   13.3389 H       1  UNL1        0.1452
     13 H          61.9758   83.0561   12.1176 H       1  UNL1        0.1452
     14 C          62.9903   90.5171   11.4973 C.2     1  UNL1        0.2462
     15 O          62.5038   91.0833   12.7983 O.2     1  UNL1       -0.2701
     16 N          64.2788   91.0032   10.9029 N.am    1  UNL1       -0.2987
     17 H          64.5981   90.6315   10.0490 H       1  UNL1        0.1500
     18 C          65.0809   92.0555   11.6095 C.3     1  UNL1        0.0944
     19 C          65.0072   92.1780   13.1028 C.3     1  UNL1        0.0262
     20 C          65.9567   92.9852   10.8230 C.ar    1  UNL1       -0.0045
     21 C          67.1665   92.4546   10.1125 C.ar    1  UNL1       -0.0027
     22 C          68.0422   93.3843    9.3260 C.ar    1  UNL1       -0.0003
     23 C          67.7082   94.8447    9.2500 C.ar    1  UNL1       -0.0000
     24 C          66.4984   95.3753    9.9605 C.ar    1  UNL1       -0.0003
     25 C          65.6226   94.4455   10.7470 C.ar    1  UNL1       -0.0027
     26 N          63.9494   88.7104   13.0993 N.pl3   1  UNL1       -0.3180
     27 H          64.2819   89.4924   12.6021 H       1  UNL1        0.1482
     28 C          64.2448   88.5713   14.5632 C.3     1  UNL1        0.0882
     29 C          63.6702   89.5531   15.5410 C.3     1  UNL1        0.0212
     30 C          62.9727   87.5965   17.1016 C.3     1  UNL1        0.0001
     31 C          63.0826   89.0682   16.8332 C.3     1  UNL1        0.0017
@<TRIPOS>BOND
     1    30    31    1
     2    31    29    1
     3    29    28    1
     4    28    26    1
     5    26     1    1
     6     1     2   ar
     7     2     3   ar
     8     3     4    1
     9     3     5   ar
    10     5     6   ar
    11     6     7   ar
    12     7     8   ar
    13     8     9   ar
    14     9    10   ar
    15    10    14    1
    16    14    15    2
    17    14    16   am
    18    16    18    1
    19    18    19    1
    20    18    20    1
    21    20    21   ar
    22    21    22   ar
    23    22    23   ar
    24    23    24   ar
    25    24    25   ar
    26    10    11   ar
    27    11     1   ar
    28    11     6   ar
    29    25    20   ar
    30    26    27    1
    31     4    12    1
    32     4    13    1
    33    16    17    1
@<TRIPOS>MOLECULE
*****
 31 33 0 0 0
SMALL
GASTEIGER

@<TRIPOS>ATOM
      1 C          63.8528   88.4421   13.2218 C.ar    1  UNL1        0.1329
      2 N          63.9005   87.0601   13.8028 N.ar    1  UNL1       -0.1993
      3 C          63.1620   85.9391   13.1334 C.ar    1  UNL1        0.2148
      4 N          63.2098   84.5570   13.7145 N.pl3   1  UNL1       -0.3274
      5 N          62.3759   86.2002   11.8829 N.ar    1  UNL1       -0.2139
      6 C          62.3281   87.5823   11.3018 C.ar    1  UNL1        0.0870
      7 C          61.5419   87.8434   10.0514 C.ar    1  UNL1        0.0193
      8 C          61.4942   89.2255    9.4703 C.ar    1  UNL1        0.0017
      9 C          62.2327   90.3464   10.1398 C.ar    1  UNL1        0.0047
     10 C          63.0189   90.0853   11.3903 C.ar    1  UNL1        0.0575
     11 C          63.0666   88.7033   11.9713 C.ar    1  UNL1        0.0535
     12 H          63.7258   84.3857   14.5352 H       1  UNL1        0.1452
     13 H          62.7251   83.8213   13.2751 H       1  UNL1        0.1452
     14 C          63.7573   91.2063   12.0597 C.2     1  UNL1        0.2462
     15 O          63.2182   91.8112   13.3220 O.2     1  UNL1       -0.2701
     16 N          65.0349   91.7223   11.4669 N.am    1  UNL1       -0.2987
     17 H          65.3887   91.3253   10.6384 H       1  UNL1        0.1500
     18 C          65.7733   92.8433   12.1363 C.3     1  UNL1        0.0944
     19 C          65.7571   94.2171   11.5343 C.3     1  UNL1        0.0262
     20 C          66.5279   92.5905   13.4078 C.ar    1  UNL1       -0.0045
     21 C          65.9508   93.0265   14.7218 C.ar    1  UNL1       -0.0027
     22 C          66.7054   92.7736   15.9933 C.ar    1  UNL1       -0.0003
     23 C          68.0372   92.0848   15.9507 C.ar    1  UNL1       -0.0000
     24 C          68.6144   91.6488   14.6366 C.ar    1  UNL1       -0.0003
     25 C          67.8597   91.9016   13.3651 C.ar    1  UNL1       -0.0027
     26 N          64.5912   89.5631   13.8913 N.pl3   1  UNL1       -0.3180
     27 H          65.1897   90.1415   13.3655 H       1  UNL1        0.1482
     28 C          64.4178   89.8027   15.3618 C.3     1  UNL1        0.0882
     29 C          63.1242   89.4464   16.0323 C.3     1  UNL1        0.0212
     30 C          62.7841   87.1511   17.2012 C.3     1  UNL1        0.0001
     31 C          63.1303   88.6087   17.2767 C.3     1  UNL1        0.0017
@<TRIPOS>BOND
     1    30    31    1
     2    31    29    1
     3    29    28    1
     4    28    26    1
     5    26     1    1
     6     1     2   ar
     7     2     3   ar
     8     3     4    1
     9     3     5   ar
    10     5     6   ar
    11     6     7   ar
    12     7     8   ar
    13     8     9   ar
    14     9    10   ar
    15    10    14    1
    16    14    15    2
    17    14    16   am
    18    16    18    1
    19    18    19    1
    20    18    20    1
    21    20    21   ar
    22    21    22   ar
    23    22    23   ar
    24    23    24   ar
    25    24    25   ar
    26    10    11   ar
    27    11     1   ar
    28    11     6   ar
    29    25    20   ar
    30    26    27    1
    31     4    12    1
    32     4    13    1
    33    16    17    1
@<TRIPOS>MOLECULE
*****
 31 33 0 0 0
SMALL
GASTEIGER

@<TRIPOS>ATOM
      1 C          63.2975   86.9535   13.0100 C.ar    1  UNL1        0.1329
      2 N          63.3734   85.4752   12.7673 N.ar    1  UNL1       -0.1993
      3 C          62.8873   84.9023   11.4690 C.ar    1  UNL1        0.2148
      4 N          62.9633   83.4240   11.2264 N.pl3   1  UNL1       -0.3274
      5 N          62.3252   85.8077   10.4134 N.ar    1  UNL1       -0.2139
      6 C          62.2492   87.2860   10.6561 C.ar    1  UNL1        0.0870
      7 C          61.6871   88.1914    9.6005 C.ar    1  UNL1        0.0193
      8 C          61.6111   89.6696    9.8432 C.ar    1  UNL1        0.0017
      9 C          62.0973   90.2425   11.1414 C.ar    1  UNL1        0.0047
     10 C          62.6594   89.3372   12.1970 C.ar    1  UNL1        0.0575
     11 C          62.7353   87.8589   11.9543 C.ar    1  UNL1        0.0535
     12 H          63.3323   82.8297   11.9192 H       1  UNL1        0.1452
     13 H          62.6443   83.0479   10.3743 H       1  UNL1        0.1452
     14 C          63.1455   89.9101   13.4953 C.2     1  UNL1        0.2462
     15 O          62.3154   89.7658   14.7363 O.2     1  UNL1       -0.2701
     16 N          64.4616   90.6273   13.5525 N.am    1  UNL1       -0.2987
     17 H          65.0064   90.7220   12.7380 H       1  UNL1        0.1500
     18 C          64.9477   91.2002   14.8508 C.3     1  UNL1        0.0944
     19 C          64.0588   91.1804   16.0589 C.3     1  UNL1        0.0262
     20 C          66.3227   91.7928   14.9409 C.ar    1  UNL1       -0.0045
     21 C          66.7017   92.6316   16.1253 C.ar    1  UNL1       -0.0027
     22 C          68.0766   93.2243   16.2155 C.ar    1  UNL1       -0.0003
     23 C          69.0727   92.9782   15.1213 C.ar    1  UNL1       -0.0000
     24 C          68.6937   92.1394   13.9369 C.ar    1  UNL1       -0.0003
     25 C          67.3187   91.5467   13.8467 C.ar    1  UNL1       -0.0027
     26 N          63.7836   87.5264   14.3082 N.pl3   1  UNL1       -0.3180
     27 H          63.6044   88.4691   14.5280 H       1  UNL1        0.1482
     28 C          64.5427   86.6629   15.2716 C.3     1  UNL1        0.0882
     29 C          63.8387   85.5607   16.0062 C.3     1  UNL1        0.0212
     30 C          62.7744   86.7804   18.0384 C.3     1  UNL1        0.0001
     31 C          62.6402   85.8703   16.8536 C.3     1  UNL1        0.0017
@<TRIPOS>BOND
     1    30    31    1
     2    31    29    1
     3    29    28    1
     4    28    26    1
     5    26     1    1
     6     1     2   ar
     7     2     3   ar
     8     3     4    1
     9     3     5   ar
    10     5     6   ar
    11     6     7   ar
    12     7     8   ar
    13     8     9   ar
    14     9    10   ar
    15    10    14    1
    16    14    15    2
    17    14    16   am
    18    16    18    1
    19    18    19    1
    20    18    20    1
    21    20    21   ar
    22    21    22   ar
    23    22    23   ar
    24    23    24   ar
    25    24    25   ar
    26    10    11   ar
    27    11     1   ar
    28    11     6   ar
    29    25    20   ar
    30    26    27    1
    31     4    12    1
    32     4    13    1
    33    16    17    1
@<TRIPOS>MOLECULE
*****
 31 33 0 0 0
SMALL
GASTEIGER

@<TRIPOS>ATOM
      1 C          63.4592   88.1327   12.7198 C.ar    1  UNL1        0.1329
      2 N          63.9749   89.4945   13.0798 N.ar    1  UNL1       -0.1993
      3 C          63.5810   90.6867   12.2591 C.ar    1  UNL1        0.2148
      4 N          64.0967   92.0485   12.6192 N.pl3   1  UNL1       -0.3274
      5 N          62.6715   90.5171   11.0785 N.ar    1  UNL1       -0.2139
      6 C          62.1558   89.1553   10.7184 C.ar    1  UNL1        0.0870
      7 C          61.2463   88.9857    9.5377 C.ar    1  UNL1        0.0193
      8 C          60.7307   87.6240    9.1778 C.ar    1  UNL1        0.0017
      9 C          61.1245   86.4318    9.9984 C.ar    1  UNL1        0.0047
     10 C          62.0340   86.6013   11.1791 C.ar    1  UNL1        0.0575
     11 C          62.5497   87.9631   11.5391 C.ar    1  UNL1        0.0535
     12 H          64.6937   92.1598   13.3941 H       1  UNL1        0.1452
     13 H          63.8382   92.8310   12.0805 H       1  UNL1        0.1452
     14 C          62.4279   85.4091   11.9998 C.2     1  UNL1        0.2462
     15 O          61.7413   85.1374   13.3054 O.2     1  UNL1       -0.2701
     16 N          63.5083   84.4886   11.5148 N.am    1  UNL1       -0.2987
     17 H          63.9589   84.6669   10.6578 H       1  UNL1        0.1500
     18 C          63.9021   83.2963   12.3355 C.3     1  UNL1        0.0944
     19 C          64.7396   83.4770   13.5668 C.3     1  UNL1        0.0262
     20 C          63.4585   81.9236   11.9249 C.ar    1  UNL1       -0.0045
     21 C          63.5114   81.5187   10.4816 C.ar    1  UNL1       -0.0027
     22 C          63.0678   80.1459   10.0710 C.ar    1  UNL1       -0.0003
     23 C          62.5713   79.1779   11.1038 C.ar    1  UNL1       -0.0000
     24 C          62.5185   79.5828   12.5471 C.ar    1  UNL1       -0.0003
     25 C          62.9621   80.9557   12.9577 C.ar    1  UNL1       -0.0027
     26 N          63.8531   86.9405   13.5405 N.pl3   1  UNL1       -0.3180
     27 H          63.8679   86.0449   13.1320 H       1  UNL1        0.1482
     28 C          64.2242   87.1128   14.9835 C.3     1  UNL1        0.0882
     29 C          64.0398   85.9774   15.9462 C.3     1  UNL1        0.0212
     30 C          62.6645   86.6429   18.0476 C.3     1  UNL1        0.0001
     31 C          62.7839   85.8813   16.7609 C.3     1  UNL1        0.0017
@<TRIPOS>BOND
     1    30    31    1
     2    31    29    1
     3    29    28    1
     4    28    26    1
     5    26     1    1
     6     1     2   ar
     7     2     3   ar
     8     3     4    1
     9     3     5   ar
    10     5     6   ar
    11     6     7   ar
    12     7     8   ar
    13     8     9   ar
    14     9    10   ar
    15    10    14    1
    16    14    15    2
    17    14    16   am
    18    16    18    1
    19    18    19    1
    20    18    20    1
    21    20    21   ar
    22    21    22   ar
    23    22    23   ar
    24    23    24   ar
    25    24    25   ar
    26    10    11   ar
    27    11     1   ar
    28    11     6   ar
    29    25    20   ar
    30    26    27    1
    31     4    12    1
    32     4    13    1
    33    16    17    1
@<TRIPOS>MOLECULE
*****
 31 33 0 0 0
SMALL
GASTEIGER

@<TRIPOS>ATOM
      1 C          62.6531   88.2455   11.7026 C.ar    1  UNL1        0.1329
      2 N          61.9905   87.7283   10.4603 N.ar    1  UNL1       -0.1993
      3 C          61.9114   86.2511   10.2119 C.ar    1  UNL1        0.2148
      4 N          61.2487   85.7339    8.9695 N.pl3   1  UNL1       -0.3274
      5 N          62.4948   85.2911   11.2059 N.ar    1  UNL1       -0.2139
      6 C          63.1575   85.8083   12.4483 C.ar    1  UNL1        0.0870
      7 C          63.7410   84.8484   13.4422 C.ar    1  UNL1        0.0193
      8 C          64.4036   85.3656   14.6845 C.ar    1  UNL1        0.0017
      9 C          64.4827   86.8427   14.9329 C.ar    1  UNL1        0.0047
     10 C          63.8992   87.8027   13.9390 C.ar    1  UNL1        0.0575
     11 C          63.2366   87.2855   12.6967 C.ar    1  UNL1        0.0535
     12 H          60.8658   86.3640    8.3172 H       1  UNL1        0.1452
     13 H          61.1968   84.7644    8.8065 H       1  UNL1        0.1452
     14 C          63.9783   89.2799   14.1874 C.2     1  UNL1        0.2462
     15 O          62.7549   90.0351   14.6148 O.2     1  UNL1       -0.2701
     16 N          65.2809   90.0018   14.0083 N.am    1  UNL1       -0.2987
     17 H          66.0839   89.5061   13.7277 H       1  UNL1        0.1500
     18 C          65.3600   91.4790   14.2567 C.3     1  UNL1        0.0944
     19 C          65.2435   92.0118   15.6540 C.3     1  UNL1        0.0262
     20 C          65.5557   92.4233   13.1078 C.ar    1  UNL1       -0.0045
     21 C          66.2191   93.7498   13.3319 C.ar    1  UNL1       -0.0027
     22 C          66.4148   94.6941   12.1830 C.ar    1  UNL1       -0.0003
     23 C          65.9470   94.3119   10.8099 C.ar    1  UNL1       -0.0000
     24 C          65.2836   92.9854   10.5859 C.ar    1  UNL1       -0.0003
     25 C          65.0879   92.0410   11.7349 C.ar    1  UNL1       -0.0027
     26 N          62.7322   89.7227   11.9510 N.pl3   1  UNL1       -0.3180
     27 H          63.2630   90.0673   12.7052 H       1  UNL1        0.1482
     28 C          62.0026   90.6748   11.0504 C.3     1  UNL1        0.0882
     29 C          60.5949   90.3768   10.6267 C.3     1  UNL1        0.0212
     30 C          59.0577   89.2371   12.3840 C.3     1  UNL1        0.0001
     31 C          59.4778   90.4604   11.6243 C.3     1  UNL1        0.0017
@<TRIPOS>BOND
     1    30    31    1
     2    31    29    1
     3    29    28    1
     4    28    26    1
     5    26     1    1
     6     1     2   ar
     7     2     3   ar
     8     3     4    1
     9     3     5   ar
    10     5     6   ar
    11     6     7   ar
    12     7     8   ar
    13     8     9   ar
    14     9    10   ar
    15    10    14    1
    16    14    15    2
    17    14    16   am
    18    16    18    1
    19    18    19    1
    20    18    20    1
    21    20    21   ar
    22    21    22   ar
    23    22    23   ar
    24    23    24   ar
    25    24    25   ar
    26    10    11   ar
    27    11     1   ar
    28    11     6   ar
    29    25    20   ar
    30    26    27    1
    31     4    12    1
    32     4    13    1
    33    16    17    1
@<TRIPOS>MOLECULE
*****
 31 33 0 0 0
SMALL
GASTEIGER

@<TRIPOS>ATOM
      1 C          64.7988   91.7618   12.3746 C.ar    1  UNL1        0.1329
      2 N          64.9289   92.3775   11.0131 N.ar    1  UNL1       -0.1993
      3 C          65.9197   93.4792   10.7797 C.ar    1  UNL1        0.2148
      4 N          66.0498   94.0949    9.4180 N.pl3   1  UNL1       -0.3274
      5 N          66.7805   93.9653   11.9078 N.ar    1  UNL1       -0.2139
      6 C          66.6504   93.3496   13.2695 C.ar    1  UNL1        0.0870
      7 C          67.5112   93.8356   14.3977 C.ar    1  UNL1        0.0193
      8 C          67.3811   93.2199   15.7593 C.ar    1  UNL1        0.0017
      9 C          66.3903   92.1182   15.9927 C.ar    1  UNL1        0.0047
     10 C          65.5295   91.6322   14.8645 C.ar    1  UNL1        0.0575
     11 C          65.6596   92.2479   13.5029 C.ar    1  UNL1        0.0535
     12 H          65.4848   93.7759    8.6775 H       1  UNL1        0.1452
     13 H          66.7001   94.8180    9.2648 H       1  UNL1        0.1452
     14 C          64.5387   90.5305   15.0979 C.2     1  UNL1        0.2462
     15 O          63.0903   90.8571   15.3109 O.2     1  UNL1       -0.2701
     16 N          64.9963   89.1021   15.1183 N.am    1  UNL1       -0.2987
     17 H          65.9469   88.8877   14.9785 H       1  UNL1        0.1500
     18 C          64.0054   88.0004   15.3517 C.3     1  UNL1        0.0944
     19 C          63.0318   88.0959   16.4888 C.3     1  UNL1        0.0262
     20 C          63.9883   86.8033   14.4481 C.ar    1  UNL1       -0.0045
     21 C          64.7034   85.5482   14.8523 C.ar    1  UNL1       -0.0027
     22 C          64.6862   84.3511   13.9486 C.ar    1  UNL1       -0.0003
     23 C          63.9539   84.4090   12.6408 C.ar    1  UNL1       -0.0000
     24 C          63.2388   85.6641   12.2366 C.ar    1  UNL1       -0.0003
     25 C          63.2560   86.8613   13.1403 C.ar    1  UNL1       -0.0027
     26 N          63.8080   90.6601   12.6080 N.pl3   1  UNL1       -0.3180
     27 H          63.9318   90.0381   13.3611 H       1  UNL1        0.1482
     28 C          62.6286   90.5060   11.6941 C.3     1  UNL1        0.0882
     29 C          62.6931   89.5485   10.5414 C.3     1  UNL1        0.0212
     30 C          61.5677   87.4890    9.4268 C.3     1  UNL1        0.0001
     31 C          61.4558   88.8271   10.0954 C.3     1  UNL1        0.0017
@<TRIPOS>BOND
     1    30    31    1
     2    31    29    1
     3    29    28    1
     4    28    26    1
     5    26     1    1
     6     1     2   ar
     7     2     3   ar
     8     3     4    1
     9     3     5   ar
    10     5     6   ar
    11     6     7   ar
    12     7     8   ar
    13     8     9   ar
    14     9    10   ar
    15    10    14    1
    16    14    15    2
    17    14    16   am
    18    16    18    1
    19    18    19    1
    20    18    20    1
    21    20    21   ar
    22    21    22   ar
    23    22    23   ar
    24    23    24   ar
    25    24    25   ar
    26    10    11   ar
    27    11     1   ar
    28    11     6   ar
    29    25    20   ar
    30    26    27    1
    31     4    12    1
    32     4    13    1
    33    16    17    1
