@<TRIPOS>MOLECULE
*****
 21 21 0 0 0
SMALL
GASTEIGER

@<TRIPOS>ATOM
      1 O          62.1467   85.0889   16.4948 O.2     1  UNL1       -0.2467
      2 C          62.4414   84.3170   15.2429 C.ar    1  UNL1        0.3270
      3 N          62.3927   85.0028   13.9098 N.ar    1  UNL1       -0.3085
      4 C          62.6874   84.2309   12.6579 C.ar    1  UNL1        0.0633
      5 C          63.0309   82.7730   12.7392 C.ar    1  UNL1        0.0988
      6 I          63.3257   82.0011   11.4873 I       1  UNL1       -0.0363
      7 C          63.0797   82.0872   14.0722 C.ar    1  UNL1        0.2675
      8 O          63.4232   80.6292   14.1535 O.2     1  UNL1       -0.2666
      9 N          62.7849   82.8591   15.3241 N.ar    1  UNL1       -0.2742
     10 H          62.1672   85.9597   13.8565 H       1  UNL1        0.1702
     11 H          62.8170   82.4089   16.1991 H       1  UNL1        0.1735
     12 C          62.6386   84.9168   11.3248 C.3     0  ACE0        0.1137
     13 N          61.4338   85.7233   10.9400 N.3     1  UNL1       -0.2895
     14 H          60.6544   85.3721   11.4964 H       1  UNL1        0.1237
     15 CA         61.4457   87.2142   11.1040 C.3     1  UNL1        0.1136
     16 CB         62.7264   87.9224   11.4329 C.3     1  UNL1        0.1553
     17 O          63.2896   87.8478   12.8212 O.3     1  UNL1       -0.3805
     18 H          62.6917   88.2991   13.4374 H       1  UNL1        0.2105
     19 C          60.1767   87.9970   10.9391 C.3     1  UNL1        0.1553
     20 O          59.3196   88.2963   12.1332 O.3     1  UNL1       -0.3805
     21 H          58.9554   87.4691   12.4853 H       1  UNL1        0.2105
@<TRIPOS>BOND
     1     1     2    2
     2     2     3   ar
     3     3     4   ar
     4     4    12    1
     5    12    13    1
     6    13    15    1
     7    15    16    1
     8    16    17    1
     9    15    19    1
    10    19    20    1
    11     4     5   ar
    12     5     6    1
    13     5     7   ar
    14     7     8    2
    15     7     9   ar
    16     9     2   ar
    17     3    10    1
    18    13    14    1
    19    17    18    1
    20    20    21    1
    21     9    11    1
@<TRIPOS>MOLECULE
*****
 21 21 0 0 0
SMALL
GASTEIGER

@<TRIPOS>ATOM
      1 O          66.7734   92.7743   15.8394 O.2     1  UNL1       -0.2467
      2 C          65.8134   92.2008   14.8397 C.ar    1  UNL1        0.3270
      3 N          65.9627   92.5278   13.3834 N.ar    1  UNL1       -0.3085
      4 C          65.0028   91.9543   12.3837 C.ar    1  UNL1        0.0633
      5 C          63.8935   91.0537   12.8402 C.ar    1  UNL1        0.0988
      6 I          62.9336   90.4801   11.8404 I       1  UNL1       -0.0363
      7 C          63.7443   90.7266   14.2964 C.ar    1  UNL1        0.2675
      8 O          62.6350   89.8260   14.7530 O.2     1  UNL1       -0.2666
      9 N          64.7042   91.3002   15.2962 N.ar    1  UNL1       -0.2742
     10 H          66.6908   93.1189   13.0838 H       1  UNL1        0.1702
     11 H          64.6062   91.0855   16.2520 H       1  UNL1        0.1735
     12 C          65.1521   92.2814   10.9273 C.3     0  ACE0        0.1137
     13 N          65.3810   93.7000   10.4969 N.3     1  UNL1       -0.2895
     14 H          65.2516   94.2830   11.3238 H       1  UNL1        0.1237
     15 CA         66.6932   94.0967    9.8883 C.3     1  UNL1        0.1136
     16 CB         67.7461   93.0590    9.6336 C.3     1  UNL1        0.1553
     17 O          69.1975   93.4180    9.7539 O.3     1  UNL1       -0.3805
     18 H          69.4305   94.0585    9.0636 H       1  UNL1        0.2105
     19 C          66.9527   95.5311    9.5343 C.3     1  UNL1        0.1553
     20 O          68.0062   95.8754    8.5236 O.3     1  UNL1       -0.3805
     21 H          68.8789   95.6335    8.8710 H       1  UNL1        0.2105
@<TRIPOS>BOND
     1     1     2    2
     2     2     3   ar
     3     3     4   ar
     4     4    12    1
     5    12    13    1
     6    13    15    1
     7    15    16    1
     8    16    17    1
     9    15    19    1
    10    19    20    1
    11     4     5   ar
    12     5     6    1
    13     5     7   ar
    14     7     8    2
    15     7     9   ar
    16     9     2   ar
    17     3    10    1
    18    13    14    1
    19    17    18    1
    20    20    21    1
    21     9    11    1
@<TRIPOS>MOLECULE
*****
 21 21 0 0 0
SMALL
GASTEIGER

@<TRIPOS>ATOM
      1 O          62.0434   85.1238   16.4442 O.2     1  UNL1       -0.2467
      2 C          62.3489   84.3025   15.2268 C.ar    1  UNL1        0.3270
      3 N          62.4385   84.9600   13.8816 N.ar    1  UNL1       -0.3085
      4 C          62.7441   84.1388   12.6641 C.ar    1  UNL1        0.0633
      5 C          62.9600   82.6599   12.7919 C.ar    1  UNL1        0.0988
      6 I          63.2656   81.8386   11.5745 I       1  UNL1       -0.0363
      7 C          62.8705   82.0024   14.1371 C.ar    1  UNL1        0.2675
      8 O          63.0865   80.5235   14.2649 O.2     1  UNL1       -0.2666
      9 N          62.5649   82.8237   15.3545 N.ar    1  UNL1       -0.2742
     10 H          62.2967   85.9307   13.7977 H       1  UNL1        0.1702
     11 H          62.5061   82.3921   16.2374 H       1  UNL1        0.1735
     12 C          62.8336   84.7964   11.3189 C.3     0  ACE0        0.1137
     13 N          61.6490   85.5285   10.7616 N.3     1  UNL1       -0.2895
     14 H          61.5984   86.4222   11.2507 H       1  UNL1        0.1237
     15 CA         61.5776   85.8331    9.2947 C.3     1  UNL1        0.1136
     16 CB         62.7676   85.5797    8.4173 C.3     1  UNL1        0.1553
     17 O          62.6098   84.7979    7.1468 O.3     1  UNL1       -0.3805
     18 H          62.3662   83.8831    7.3583 H       1  UNL1        0.2105
     19 C          60.3163   86.3912    8.7050 C.3     1  UNL1        0.1553
     20 O          59.6795   85.7202    7.5242 O.3     1  UNL1       -0.3805
     21 H          60.2654   85.7952    6.7548 H       1  UNL1        0.2105
@<TRIPOS>BOND
     1     1     2    2
     2     2     3   ar
     3     3     4   ar
     4     4    12    1
     5    12    13    1
     6    13    15    1
     7    15    16    1
     8    16    17    1
     9    15    19    1
    10    19    20    1
    11     4     5   ar
    12     5     6    1
    13     5     7   ar
    14     7     8    2
    15     7     9   ar
    16     9     2   ar
    17     3    10    1
    18    13    14    1
    19    17    18    1
    20    20    21    1
    21     9    11    1
@<TRIPOS>MOLECULE
*****
 21 21 0 0 0
SMALL
GASTEIGER

@<TRIPOS>ATOM
      1 O          61.2806   90.2335   10.2811 O.2     1  UNL1       -0.2467
      2 C          62.2860   90.5135   11.3585 C.ar    1  UNL1        0.3270
      3 N          63.4850   91.3649   11.0626 N.ar    1  UNL1       -0.3085
      4 C          64.4904   91.6448   12.1400 C.ar    1  UNL1        0.0633
      5 C          64.2969   91.0733   13.5133 C.ar    1  UNL1        0.0988
      6 I          65.3023   91.3532   14.5907 I       1  UNL1       -0.0363
      7 C          63.0979   90.2219   13.8091 C.ar    1  UNL1        0.2675
      8 O          62.9044   89.6503   15.1825 O.2     1  UNL1       -0.2666
      9 N          62.0925   89.9419   12.7317 N.ar    1  UNL1       -0.2742
     10 H          63.6120   91.7400   10.1613 H       1  UNL1        0.1702
     11 H          61.3056   89.3831   12.9259 H       1  UNL1        0.1735
     12 C          65.6894   92.4963   11.8441 C.3     0  ACE0        0.1137
     13 N          66.1462   92.6819   10.4275 N.3     1  UNL1       -0.2895
     14 H          65.3088   92.6791    9.8453 H       1  UNL1        0.1237
     15 CA         66.9341   93.9003   10.0470 C.3     1  UNL1        0.1136
     16 CB         66.4313   95.2643   10.4170 C.3     1  UNL1        0.1553
     17 O          64.9815   95.6040   10.2352 O.3     1  UNL1       -0.3805
     18 H          64.7651   95.6021    9.2897 H       1  UNL1        0.2105
     19 C          68.2247   93.7548    9.2966 C.3     1  UNL1        0.1553
     20 O          69.2901   92.8314    9.8088 O.3     1  UNL1       -0.3805
     21 H          69.6301   93.1667   10.6530 H       1  UNL1        0.2105
@<TRIPOS>BOND
     1     1     2    2
     2     2     3   ar
     3     3     4   ar
     4     4    12    1
     5    12    13    1
     6    13    15    1
     7    15    16    1
     8    16    17    1
     9    15    19    1
    10    19    20    1
    11     4     5   ar
    12     5     6    1
    13     5     7   ar
    14     7     8    2
    15     7     9   ar
    16     9     2   ar
    17     3    10    1
    18    13    14    1
    19    17    18    1
    20    20    21    1
    21     9    11    1
@<TRIPOS>MOLECULE
*****
 21 21 0 0 0
SMALL
GASTEIGER

@<TRIPOS>ATOM
      1 O          64.1047   90.4596    3.4879 O.2     1  UNL1       -0.2467
      2 C          63.2617   91.5905    2.9773 C.ar    1  UNL1        0.3270
      3 N          61.7927   91.6263    3.2784 N.ar    1  UNL1       -0.3085
      4 C          60.9498   92.7571    2.7679 C.ar    1  UNL1        0.0633
      5 C          61.5759   93.8522    1.9562 C.ar    1  UNL1        0.0988
      6 I          60.7330   94.9830    1.4456 I       1  UNL1       -0.0363
      7 C          63.0449   93.8164    1.6551 C.ar    1  UNL1        0.2675
      8 O          63.6711   94.9114    0.8434 O.2     1  UNL1       -0.2666
      9 N          63.8878   92.6855    2.1657 N.ar    1  UNL1       -0.2742
     10 H          61.3818   90.9076    3.8112 H       1  UNL1        0.1702
     11 H          64.8520   92.6620    1.9680 H       1  UNL1        0.1735
     12 C          59.4807   92.7929    3.0690 C.3     0  ACE0        0.1137
     13 N          59.0068   92.7983    4.4922 N.3     1  UNL1       -0.2895
     14 H          58.4390   93.6373    4.6102 H       1  UNL1        0.1237
     15 CA         58.1971   91.6500    5.0174 C.3     1  UNL1        0.1136
     16 CB         56.7031   91.6630    4.8843 C.3     1  UNL1        0.1553
     17 O          55.9033   90.4614    5.2926 O.3     1  UNL1       -0.3805
     18 H          56.1123   89.7188    4.7045 H       1  UNL1        0.2105
     19 C          58.8814   90.4888    5.6757 C.3     1  UNL1        0.1553
     20 O          60.3769   90.4656    5.7891 O.3     1  UNL1       -0.3805
     21 H          60.7674   90.4032    4.9033 H       1  UNL1        0.2105
@<TRIPOS>BOND
     1     1     2    2
     2     2     3   ar
     3     3     4   ar
     4     4    12    1
     5    12    13    1
     6    13    15    1
     7    15    16    1
     8    16    17    1
     9    15    19    1
    10    19    20    1
    11     4     5   ar
    12     5     6    1
    13     5     7   ar
    14     7     8    2
    15     7     9   ar
    16     9     2   ar
    17     3    10    1
    18    13    14    1
    19    17    18    1
    20    20    21    1
    21     9    11    1
@<TRIPOS>MOLECULE
*****
 21 21 0 0 0
SMALL
GASTEIGER

@<TRIPOS>ATOM
      1 O          62.7777   89.4164   16.0501 O.2     1  UNL1       -0.2467
      2 C          63.3763   90.1462   14.8843 C.ar    1  UNL1        0.3270
      3 N          62.6844   90.1295   13.5535 N.ar    1  UNL1       -0.3085
      4 C          63.2830   90.8593   12.3877 C.ar    1  UNL1        0.0633
      5 C          64.5736   91.6058   12.5527 C.ar    1  UNL1        0.0988
      6 I          65.1722   92.3356   11.3869 I       1  UNL1       -0.0363
      7 C          65.2655   91.6225   13.8834 C.ar    1  UNL1        0.2675
      8 O          66.5561   92.3690   14.0484 O.2     1  UNL1       -0.2666
      9 N          64.6669   90.8927   15.0492 N.ar    1  UNL1       -0.2742
     10 H          61.8374   89.6396   13.4453 H       1  UNL1        0.1702
     11 H          65.1210   90.9037   15.9226 H       1  UNL1        0.1735
     12 C          62.5910   90.8426   11.0569 C.3     0  ACE0        0.1137
     13 N          62.5307   89.5740   10.2589 N.3     1  UNL1       -0.2895
     14 H          63.4839   89.2151   10.2040 H       1  UNL1        0.1237
     15 CA         61.6663   88.4382   10.7200 C.3     1  UNL1        0.1136
     16 CB         62.2892   87.1271   11.0982 C.3     1  UNL1        0.1553
     17 O          61.4553   86.0579   11.7398 O.3     1  UNL1       -0.3805
     18 H          61.1632   86.3573   12.6150 H       1  UNL1        0.2105
     19 C          60.1788   88.6135   10.8030 C.3     1  UNL1        0.1553
     20 O          59.4504   88.2533   12.0637 O.3     1  UNL1       -0.3805
     21 H          59.5093   87.2960   12.2090 H       1  UNL1        0.2105
@<TRIPOS>BOND
     1     1     2    2
     2     2     3   ar
     3     3     4   ar
     4     4    12    1
     5    12    13    1
     6    13    15    1
     7    15    16    1
     8    16    17    1
     9    15    19    1
    10    19    20    1
    11     4     5   ar
    12     5     6    1
    13     5     7   ar
    14     7     8    2
    15     7     9   ar
    16     9     2   ar
    17     3    10    1
    18    13    14    1
    19    17    18    1
    20    20    21    1
    21     9    11    1
@<TRIPOS>MOLECULE
*****
 21 21 0 0 0
SMALL
GASTEIGER

@<TRIPOS>ATOM
      1 O          62.6264   90.9069   12.1437 O.2     1  UNL1       -0.2467
      2 C          62.1099   89.8032   11.2690 C.ar    1  UNL1        0.3270
      3 N          62.4642   88.3776   11.5724 N.ar    1  UNL1       -0.3085
      4 C          61.9478   87.2739   10.6977 C.ar    1  UNL1        0.0633
      5 C          61.0770   87.5958    9.5195 C.ar    1  UNL1        0.0988
      6 I          60.5605   86.4922    8.6448 I       1  UNL1       -0.0363
      7 C          60.7226   89.0214    9.2161 C.ar    1  UNL1        0.2675
      8 O          59.8518   89.3434    8.0380 O.2     1  UNL1       -0.2666
      9 N          61.2391   90.1251   10.0909 N.ar    1  UNL1       -0.2742
     10 H          63.0358   88.1663   12.3457 H       1  UNL1        0.1702
     11 H          61.0065   91.0608    9.8917 H       1  UNL1        0.1735
     12 C          62.3022   85.8483   11.0011 C.3     0  ACE0        0.1137
     13 N          62.3628   85.3771   12.4239 N.3     1  UNL1       -0.2895
     14 H          61.4069   85.3905   12.7795 H       1  UNL1        0.1237
     15 CA         62.9241   84.0230   12.7422 C.3     1  UNL1        0.1136
     16 CB         62.7719   83.4534   14.1215 C.3     1  UNL1        0.1553
     17 O          63.6336   82.3058   14.5582 O.3     1  UNL1       -0.3805
     18 H          63.4159   81.5198   14.0331 H       1  UNL1        0.2105
     19 C          63.6378   83.2386   11.6813 C.3     1  UNL1        0.1553
     20 O          65.0685   82.8352   11.8816 O.3     1  UNL1       -0.3805
     21 H          65.6280   83.6273   11.9017 H       1  UNL1        0.2105
@<TRIPOS>BOND
     1     1     2    2
     2     2     3   ar
     3     3     4   ar
     4     4    12    1
     5    12    13    1
     6    13    15    1
     7    15    16    1
     8    16    17    1
     9    15    19    1
    10    19    20    1
    11     4     5   ar
    12     5     6    1
    13     5     7   ar
    14     7     8    2
    15     7     9   ar
    16     9     2   ar
    17     3    10    1
    18    13    14    1
    19    17    18    1
    20    20    21    1
    21     9    11    1
@<TRIPOS>MOLECULE
*****
 21 21 0 0 0
SMALL
GASTEIGER

@<TRIPOS>ATOM
      1 O          64.0778   90.2825   13.5700 O.2     1  UNL1       -0.2467
      2 C          63.3859   89.3305   12.6399 C.ar    1  UNL1        0.3270
      3 N          63.4360   87.8548   12.9035 N.ar    1  UNL1       -0.3085
      4 C          62.7441   86.9028   11.9735 C.ar    1  UNL1        0.0633
      5 C          62.0021   87.4266   10.7797 C.ar    1  UNL1        0.0988
      6 I          61.3103   86.4747    9.8496 I       1  UNL1       -0.0363
      7 C          61.9521   88.9024   10.5161 C.ar    1  UNL1        0.2675
      8 O          61.2101   89.4263    9.3223 O.2     1  UNL1       -0.2666
      9 N          62.6440   89.8544   11.4462 N.ar    1  UNL1       -0.2742
     10 H          63.9230   87.5110   13.6871 H       1  UNL1        0.1702
     11 H          62.6111   90.8230   11.2731 H       1  UNL1        0.1735
     12 C          62.7942   85.4270   12.2372 C.3     0  ACE0        0.1137
     13 N          62.6954   84.9125   13.6427 N.3     1  UNL1       -0.2895
     14 H          62.4186   83.9329   13.5789 H       1  UNL1        0.1237
     15 CA         63.8910   84.9666   14.5469 C.3     1  UNL1        0.1136
     16 CB         63.8273   85.7430   15.8288 C.3     1  UNL1        0.1553
     17 O          63.6085   87.2266   15.7970 O.3     1  UNL1       -0.3805
     18 H          64.3732   87.6575   15.3841 H       1  UNL1        0.2105
     19 C          65.1503   84.2444   14.1693 C.3     1  UNL1        0.1553
     20 O          66.4848   84.8166   14.5457 O.3     1  UNL1       -0.3805
     21 H          66.6258   85.6492   14.0684 H       1  UNL1        0.2105
@<TRIPOS>BOND
     1     1     2    2
     2     2     3   ar
     3     3     4   ar
     4     4    12    1
     5    12    13    1
     6    13    15    1
     7    15    16    1
     8    16    17    1
     9    15    19    1
    10    19    20    1
    11     4     5   ar
    12     5     6    1
    13     5     7   ar
    14     7     8    2
    15     7     9   ar
    16     9     2   ar
    17     3    10    1
    18    13    14    1
    19    17    18    1
    20    20    21    1
    21     9    11    1
@<TRIPOS>MOLECULE
*****
 21 21 0 0 0
SMALL
GASTEIGER

@<TRIPOS>ATOM
      1 O          67.1547   94.0825   10.6398 O.2     1  UNL1       -0.2467
      2 C          66.4534   93.1504   11.5828 C.ar    1  UNL1        0.3270
      3 N          65.1534   92.5176   11.1836 N.ar    1  UNL1       -0.3085
      4 C          64.4521   91.5855   12.1266 C.ar    1  UNL1        0.0633
      5 C          65.0509   91.2861   13.4689 C.ar    1  UNL1        0.0988
      6 I          64.3496   90.3539   14.4120 I       1  UNL1       -0.0363
      7 C          66.3509   91.9189   13.8682 C.ar    1  UNL1        0.2675
      8 O          66.9498   91.6195   15.2105 O.2     1  UNL1       -0.2666
      9 N          67.0522   92.8510   12.9251 N.ar    1  UNL1       -0.2742
     10 H          64.7604   92.7141   10.3026 H       1  UNL1        0.1702
     11 H          67.9055   93.2663   13.1872 H       1  UNL1        0.1735
     12 C          63.1520   90.9527   11.7273 C.3     0  ACE0        0.1137
     13 N          63.0941   90.0479   10.5323 N.3     1  UNL1       -0.2895
     14 H          63.9463   89.4874   10.5458 H       1  UNL1        0.1237
     15 CA         61.9497   89.0919   10.3702 C.3     1  UNL1        0.1136
     16 CB         60.7808   89.4610    9.5056 C.3     1  UNL1        0.1553
     17 O          59.8614   90.5710    9.9213 O.3     1  UNL1       -0.3805
     18 H          59.3908   90.3153   10.7300 H       1  UNL1        0.2105
     19 C          61.9741   87.7667   11.0726 C.3     1  UNL1        0.1553
     20 O          60.6891   87.1165   11.4921 O.3     1  UNL1       -0.3805
     21 H          60.2625   87.6552   12.1767 H       1  UNL1        0.2105
@<TRIPOS>BOND
     1     1     2    2
     2     2     3   ar
     3     3     4   ar
     4     4    12    1
     5    12    13    1
     6    13    15    1
     7    15    16    1
     8    16    17    1
     9    15    19    1
    10    19    20    1
    11     4     5   ar
    12     5     6    1
    13     5     7   ar
    14     7     8    2
    15     7     9   ar
    16     9     2   ar
    17     3    10    1
    18    13    14    1
    19    17    18    1
    20    20    21    1
    21     9    11    1
