@<TRIPOS>MOLECULE
*****
 41 45 0 0 0
SMALL
GASTEIGER

@<TRIPOS>ATOM
      1 C          63.5127   89.0993   12.9818 C.2     1  UNL1        0.3851
      2 N          62.9323   88.1216   12.0034 N.am    1  UNL1        0.0009
      3 N          63.1558   90.5533   12.8904 N.pl3   1  UNL1       -0.2438
      4 H          62.2261   90.8422   13.0365 H       1  UNL1        0.2647
      5 C          67.6257   95.6274    8.9032 C.3     1  UNL1        0.0725
      6 C          66.9354   94.7327    9.8897 C.ar    1  UNL1        0.1233
      7 C          65.7822   93.8198    9.5955 C.ar    1  UNL1        0.0361
      8 C          65.4112   93.1168   10.8676 C.ar    1  UNL1        0.0400
      9 C          64.3514   92.1029   11.1817 C.ar    1  UNL1        0.0365
     10 C          64.2156   91.5674   12.5762 C.ar    1  UNL1        0.1168
     11 C          65.1396   92.0458   13.6566 C.ar    1  UNL1        0.0365
     12 C          66.1994   93.0598   13.3425 C.ar    1  UNL1        0.0404
     13 C          66.3352   93.5953   11.9480 C.ar    1  UNL1        0.1450
     14 O          67.2772   94.5940   11.3436 O.2     1  UNL1       -0.4577
     15 C          61.9950   88.5980   10.9334 C.2     1  UNL1        0.3478
     16 O          61.5082   90.0168   10.9402 O.2     1  UNL1       -0.2481
     17 C          61.5447   87.6557    9.8569 C.ar    1  UNL1        0.1437
     18 C          62.5043   86.6526    9.2885 C.ar    1  UNL1        0.0187
     19 C          62.0539   85.7102    8.2119 C.ar    1  UNL1        0.0774
     20 C          60.6439   85.7710    7.7036 C.ar    1  UNL1        0.3018
     21 N          59.6843   86.7741    8.2719 N.ar    1  UNL1       -0.1517
     22 O          58.2744   86.8348    7.7637 O.co2   1  UNL1       -0.6187
     23 C          60.1348   87.7164    9.3486 C.ar    1  UNL1        0.3078
     24 N          64.4499   88.6229   14.0517 N.pl3   1  UNL1       -0.2585
     25 H          65.3950   88.8982   14.0366 H       1  UNL1        0.2589
     26 C          63.9471   87.7270   15.1447 C.3     1  UNL1        0.2142
     27 C          63.3303   88.4209   16.3229 C.3     1  UNL1        0.0490
     28 C          62.7417   87.8148   17.5623 C.3     1  UNL1        0.0057
     29 C          62.6245   86.3651   17.9297 C.3     1  UNL1        0.0216
     30 C          63.0670   85.1636   17.1484 C.3     1  UNL1        0.0940
     31 N          63.7360   85.1149   15.8067 N.am    1  UNL1       -0.2686
     32 C          64.1277   86.2558   14.9150 C.2     1  UNL1        0.2622
     33 O          64.7871   85.8749   13.6227 O.2     1  UNL1       -0.2712
     34 C          64.0555   83.7442   15.2882 C.3     1  UNL1        0.1794
     35 C          63.0693   83.0227   14.4182 C.2     1  UNL1        0.2459
     36 O          61.7576   82.5700   14.9876 O.2     1  UNL1       -0.2730
     37 N          63.3949   82.7540   12.9789 N.am    1  UNL1       -0.2781
     38 C          64.6597   83.1445   12.2732 C.3     1  UNL1        0.0935
     39 C          64.5594   82.6795   10.8507 C.3     1  UNL1        0.0233
     40 C          63.2326   82.0016   10.6771 C.3     1  UNL1        0.0233
     41 C          62.5130   82.0476   11.9924 C.3     1  UNL1        0.0935
@<TRIPOS>UNITY_ATOM_ATTR
21 1
charge 1
22 1
charge -1
@<TRIPOS>BOND
     1     5     6    1
     2     6     7   ar
     3     7     8   ar
     4     8     9   ar
     5     9    10   ar
     6    10     3    1
     7     3     1    1
     8     1     2    2
     9     2    15    1
    10    15    16    2
    11    15    17    1
    12    17    18   ar
    13    18    19   ar
    14    19    20   ar
    15    20    21   ar
    16    21    22    1
    17    21    23   ar
    18     1    24    1
    19    26    24    1
    20    26    27    1
    21    27    28    1
    22    28    29    1
    23    29    30    1
    24    30    31    1
    25    31    34    1
    26    34    35    1
    27    35    36    2
    28    35    37   am
    29    37    38    1
    30    38    39    1
    31    39    40    1
    32    40    41    1
    33    31    32   am
    34    32    33    2
    35    10    11   ar
    36    11    12   ar
    37    12    13   ar
    38    13    14   ar
    39    14     6   ar
    40    13     8   ar
    41    23    17   ar
    42    32    26    1
    43    41    37    1
    44     3     4    1
    45    24    25    1
@<TRIPOS>MOLECULE
*****
 41 45 0 0 0
SMALL
GASTEIGER

@<TRIPOS>ATOM
      1 C          63.3515   90.3339   15.2364 C.2     1  UNL1        0.3851
      2 N          63.9421   91.7082   15.1246 N.am    1  UNL1        0.0009
      3 N          63.8409   89.3912   16.2955 N.pl3   1  UNL1       -0.2438
      4 H          64.3259   89.7392   17.0784 H       1  UNL1        0.2647
      5 C          64.0027   82.0587   13.4970 C.3     1  UNL1        0.0725
      6 C          63.8086   83.3469   14.2404 C.ar    1  UNL1        0.1233
      7 C          64.3704   84.6824   13.8519 C.ar    1  UNL1        0.0361
      8 C          63.9276   85.6868   14.8742 C.ar    1  UNL1        0.0400
      9 C          64.1772   87.1598   15.0079 C.ar    1  UNL1        0.0365
     10 C          63.5913   87.9181   16.1618 C.ar    1  UNL1        0.1168
     11 C          62.7558   87.2034   17.1822 C.ar    1  UNL1        0.0365
     12 C          62.5061   85.7304   17.0485 C.ar    1  UNL1        0.0404
     13 C          63.0920   84.9721   15.8946 C.ar    1  UNL1        0.1450
     14 O          63.0185   83.5260   15.5028 O.2     1  UNL1       -0.4577
     15 C          65.0220   92.1398   16.0720 C.2     1  UNL1        0.3478
     16 O          64.6917   92.4208   17.5079 O.2     1  UNL1       -0.2481
     17 C          66.4322   92.2904   15.5834 C.ar    1  UNL1        0.1437
     18 C          67.4857   92.8487   16.4936 C.ar    1  UNL1        0.0187
     19 C          68.8958   92.9993   16.0050 C.ar    1  UNL1        0.0774
     20 C          69.2525   92.5917   14.6062 C.ar    1  UNL1        0.3018
     21 N          68.1990   92.0334   13.6960 N.ar    1  UNL1       -0.1517
     22 O          68.5556   91.6257   12.2972 O.co2   1  UNL1       -0.6187
     23 C          66.7888   91.8828   14.1846 C.ar    1  UNL1        0.3078
     24 N          62.2716   89.9023   14.2890 N.pl3   1  UNL1       -0.2585
     25 H          61.4845   89.4175   14.6277 H       1  UNL1        0.2589
     26 C          62.3909   90.2093   12.8256 C.3     1  UNL1        0.2142
     27 C          63.6100   90.9837   12.4204 C.3     1  UNL1        0.0490
     28 C          64.0147   91.4414   11.0504 C.3     1  UNL1        0.0057
     29 C          63.3001   91.2377    9.7473 C.3     1  UNL1        0.0216
     30 C          62.0046   90.5260    9.4923 C.3     1  UNL1        0.0940
     31 N          61.1035   89.8422   10.4775 N.am    1  UNL1       -0.2686
     32 C          61.2755   89.7013   11.9610 C.2     1  UNL1        0.2622
     33 O          60.1881   88.9534   12.6740 O.2     1  UNL1       -0.2712
     34 C          59.8670   89.2167    9.9033 C.3     1  UNL1        0.1794
     35 C          59.9718   88.2885    8.7296 C.2     1  UNL1        0.2459
     36 O          59.1235   88.5177    7.5141 O.2     1  UNL1       -0.2730
     37 N          60.9251   87.1311    8.7717 N.am    1  UNL1       -0.2781
     38 C          61.8327   86.7773    9.9124 C.3     1  UNL1        0.0935
     39 C          62.6066   85.5518    9.5260 C.3     1  UNL1        0.0233
     40 C          62.1773   85.1482    8.1466 C.3     1  UNL1        0.0233
     41 C          61.1381   86.1243    7.6804 C.3     1  UNL1        0.0935
@<TRIPOS>UNITY_ATOM_ATTR
21 1
charge 1
22 1
charge -1
@<TRIPOS>BOND
     1     5     6    1
     2     6     7   ar
     3     7     8   ar
     4     8     9   ar
     5     9    10   ar
     6    10     3    1
     7     3     1    1
     8     1     2    2
     9     2    15    1
    10    15    16    2
    11    15    17    1
    12    17    18   ar
    13    18    19   ar
    14    19    20   ar
    15    20    21   ar
    16    21    22    1
    17    21    23   ar
    18     1    24    1
    19    26    24    1
    20    26    27    1
    21    27    28    1
    22    28    29    1
    23    29    30    1
    24    30    31    1
    25    31    34    1
    26    34    35    1
    27    35    36    2
    28    35    37   am
    29    37    38    1
    30    38    39    1
    31    39    40    1
    32    40    41    1
    33    31    32   am
    34    32    33    2
    35    10    11   ar
    36    11    12   ar
    37    12    13   ar
    38    13    14   ar
    39    14     6   ar
    40    13     8   ar
    41    23    17   ar
    42    32    26    1
    43    41    37    1
    44     3     4    1
    45    24    25    1
@<TRIPOS>MOLECULE
*****
 41 45 0 0 0
SMALL
GASTEIGER

@<TRIPOS>ATOM
      1 C          63.4443   88.8960   12.8427 C.2     1  UNL1        0.3851
      2 N          62.6534   87.8796   12.0736 N.am    1  UNL1        0.0009
      3 N          63.2780   90.3569   12.5458 N.pl3   1  UNL1       -0.2438
      4 H          62.4366   90.6873   12.1557 H       1  UNL1        0.2647
      5 C          69.0026   94.1271   16.3716 C.3     1  UNL1        0.0725
      6 C          67.9767   93.5822   15.4227 C.ar    1  UNL1        0.1233
      7 C          67.0060   92.4762   15.7134 C.ar    1  UNL1        0.0361
      8 C          66.1707   92.2581   14.4868 C.ar    1  UNL1        0.0400
      9 C          65.0550   91.3007   14.1894 C.ar    1  UNL1        0.0365
     10 C          64.3937   91.3144   12.8432 C.ar    1  UNL1        0.1168
     11 C          64.8480   92.2857   11.7943 C.ar    1  UNL1        0.0365
     12 C          65.9637   93.2432   12.0916 C.ar    1  UNL1        0.0404
     13 C          66.6250   93.2294   13.4379 C.ar    1  UNL1        0.1450
     14 O          67.7412   94.0477   14.0163 O.2     1  UNL1       -0.4577
     15 C          61.6962   88.3241   11.0076 C.2     1  UNL1        0.3478
     16 O          61.0299   89.6641   11.1093 O.2     1  UNL1       -0.2481
     17 C          61.4054   87.4286    9.8400 C.ar    1  UNL1        0.1437
     18 C          62.4698   86.5114    9.3148 C.ar    1  UNL1        0.0187
     19 C          62.1790   85.6159    8.1472 C.ar    1  UNL1        0.0774
     20 C          60.8237   85.6375    7.5047 C.ar    1  UNL1        0.3018
     21 N          59.7593   86.5547    8.0298 N.ar    1  UNL1       -0.1517
     22 O          58.4040   86.5763    7.3874 O.co2   1  UNL1       -0.6187
     23 C          60.0502   87.4502    9.1975 C.ar    1  UNL1        0.3078
     24 N          64.4015   88.4515   13.9087 N.pl3   1  UNL1       -0.2585
     25 H          65.3467   88.7234   13.8659 H       1  UNL1        0.2589
     26 C          63.9184   87.5929   15.0398 C.3     1  UNL1        0.2142
     27 C          63.3364   88.3268   16.2114 C.3     1  UNL1        0.0490
     28 C          62.7734   87.7630   17.4823 C.3     1  UNL1        0.0057
     29 C          62.6535   86.3259   17.8955 C.3     1  UNL1        0.0216
     30 C          63.0668   85.0979   17.1398 C.3     1  UNL1        0.0940
     31 N          63.7022   85.0036   15.7843 N.am    1  UNL1       -0.2686
     32 C          64.0812   86.1140   14.8497 C.2     1  UNL1        0.2622
     33 O          64.7056   85.6892   13.5536 O.2     1  UNL1       -0.2712
     34 C          63.9977   83.6153   15.2992 C.3     1  UNL1        0.1794
     35 C          63.0193   82.9077   14.4092 C.2     1  UNL1        0.2459
     36 O          61.6969   82.4585   14.9560 O.2     1  UNL1       -0.2730
     37 N          63.3636   82.6495   12.9722 N.am    1  UNL1       -0.2781
     38 C          64.6406   83.0380   12.2879 C.3     1  UNL1        0.0935
     39 C          64.5574   82.5860   10.8601 C.3     1  UNL1        0.0233
     40 C          63.2290   81.9181   10.6619 C.3     1  UNL1        0.0233
     41 C          62.4912   81.9574   11.9673 C.3     1  UNL1        0.0935
@<TRIPOS>UNITY_ATOM_ATTR
21 1
charge 1
22 1
charge -1
@<TRIPOS>BOND
     1     5     6    1
     2     6     7   ar
     3     7     8   ar
     4     8     9   ar
     5     9    10   ar
     6    10     3    1
     7     3     1    1
     8     1     2    2
     9     2    15    1
    10    15    16    2
    11    15    17    1
    12    17    18   ar
    13    18    19   ar
    14    19    20   ar
    15    20    21   ar
    16    21    22    1
    17    21    23   ar
    18     1    24    1
    19    26    24    1
    20    26    27    1
    21    27    28    1
    22    28    29    1
    23    29    30    1
    24    30    31    1
    25    31    34    1
    26    34    35    1
    27    35    36    2
    28    35    37   am
    29    37    38    1
    30    38    39    1
    31    39    40    1
    32    40    41    1
    33    31    32   am
    34    32    33    2
    35    10    11   ar
    36    11    12   ar
    37    12    13   ar
    38    13    14   ar
    39    14     6   ar
    40    13     8   ar
    41    23    17   ar
    42    32    26    1
    43    41    37    1
    44     3     4    1
    45    24    25    1
@<TRIPOS>MOLECULE
*****
 41 45 0 0 0
SMALL
GASTEIGER

@<TRIPOS>ATOM
      1 C          60.9611   88.1689    9.4965 C.2     1  UNL1        0.3851
      2 N          59.9308   89.0150    8.8091 N.am    1  UNL1        0.0009
      3 N          61.5329   86.9697    8.8000 N.pl3   1  UNL1       -0.2438
      4 H          61.4688   86.8922    7.8207 H       1  UNL1        0.2647
      5 C          63.7450   82.5042   14.8654 C.3     1  UNL1        0.0725
      6 C          63.4886   83.1807   13.5514 C.ar    1  UNL1        0.1233
      7 C          62.6138   84.3795   13.3328 C.ar    1  UNL1        0.0361
      8 C          62.6465   84.7169   11.8716 C.ar    1  UNL1        0.0400
      9 C          61.9770   85.7979   11.0760 C.ar    1  UNL1        0.0365
     10 C          62.2024   85.8887    9.5958 C.ar    1  UNL1        0.1168
     11 C          63.0973   84.8984    8.9113 C.ar    1  UNL1        0.0365
     12 C          63.7669   83.8174    9.7070 C.ar    1  UNL1        0.0404
     13 C          63.5414   83.7267   11.1871 C.ar    1  UNL1        0.1450
     14 O          64.0618   82.7773   12.2253 O.2     1  UNL1       -0.4577
     15 C          59.4722   88.6619    7.4252 C.2     1  UNL1        0.3478
     16 O          59.2815   87.2242    7.0423 O.2     1  UNL1       -0.2481
     17 C          59.2043   89.7465    6.4243 C.ar    1  UNL1        0.1437
     18 C          60.3424   90.3732    5.6748 C.ar    1  UNL1        0.0187
     19 C          60.0745   91.4577    4.6739 C.ar    1  UNL1        0.0774
     20 C          58.6684   91.9157    4.4225 C.ar    1  UNL1        0.3018
     21 N          57.5302   91.2890    5.1721 N.ar    1  UNL1       -0.1517
     22 O          56.1241   91.7469    4.9207 O.co2   1  UNL1       -0.6187
     23 C          57.7982   90.2044    6.1730 C.ar    1  UNL1        0.3078
     24 N          61.4198   88.5220   10.8804 N.pl3   1  UNL1       -0.2585
     25 H          61.0545   88.0409   11.6578 H       1  UNL1        0.2589
     26 C          62.4349   89.6082   11.0797 C.3     1  UNL1        0.2142
     27 C          62.5722   90.5859    9.9504 C.3     1  UNL1        0.0490
     28 C          63.4870   91.7699    9.8445 C.3     1  UNL1        0.0057
     29 C          64.4904   92.2687   10.8418 C.3     1  UNL1        0.0216
     30 C          64.8268   91.7067   12.1912 C.3     1  UNL1        0.0940
     31 N          64.2428   90.5070   12.8767 N.am    1  UNL1       -0.2686
     32 C          63.1783   89.5731   12.3820 C.2     1  UNL1        0.2622
     33 O          62.8084   88.4565   13.3128 O.2     1  UNL1       -0.2712
     34 C          64.7967   90.2008   14.2366 C.3     1  UNL1        0.1794
     35 C          65.0492   91.3126   15.2113 C.2     1  UNL1        0.2459
     36 O          63.9432   91.7941   16.1028 O.2     1  UNL1       -0.2730
     37 N          66.4078   91.9428   15.2945 N.am    1  UNL1       -0.2781
     38 C          67.6051   91.5691   14.4718 C.3     1  UNL1        0.0935
     39 C          68.7449   92.4528   14.8839 C.3     1  UNL1        0.0233
     40 C          68.2521   93.3727   15.9614 C.3     1  UNL1        0.0233
     41 C          66.8077   93.0576   16.2151 C.3     1  UNL1        0.0935
@<TRIPOS>UNITY_ATOM_ATTR
21 1
charge 1
22 1
charge -1
@<TRIPOS>BOND
     1     5     6    1
     2     6     7   ar
     3     7     8   ar
     4     8     9   ar
     5     9    10   ar
     6    10     3    1
     7     3     1    1
     8     1     2    2
     9     2    15    1
    10    15    16    2
    11    15    17    1
    12    17    18   ar
    13    18    19   ar
    14    19    20   ar
    15    20    21   ar
    16    21    22    1
    17    21    23   ar
    18     1    24    1
    19    26    24    1
    20    26    27    1
    21    27    28    1
    22    28    29    1
    23    29    30    1
    24    30    31    1
    25    31    34    1
    26    34    35    1
    27    35    36    2
    28    35    37   am
    29    37    38    1
    30    38    39    1
    31    39    40    1
    32    40    41    1
    33    31    32   am
    34    32    33    2
    35    10    11   ar
    36    11    12   ar
    37    12    13   ar
    38    13    14   ar
    39    14     6   ar
    40    13     8   ar
    41    23    17   ar
    42    32    26    1
    43    41    37    1
    44     3     4    1
    45    24    25    1
@<TRIPOS>MOLECULE
*****
 41 45 0 0 0
SMALL
GASTEIGER

@<TRIPOS>ATOM
      1 C          62.9712   90.2907   13.1054 C.2     1  UNL1        0.3851
      2 N          62.2740   89.9066   14.3767 N.am    1  UNL1        0.0009
      3 N          64.4666   90.4044   13.0750 N.pl3   1  UNL1       -0.2438
      4 H          65.0243   89.6180   13.2747 H       1  UNL1        0.2647
      5 C          67.0292   96.5824    8.9654 C.3     1  UNL1        0.0725
      6 C          66.6559   95.5386    9.9759 C.ar    1  UNL1        0.1233
      7 C          65.9148   94.2650    9.6953 C.ar    1  UNL1        0.0361
      8 C          65.7590   93.5243   10.9903 C.ar    1  UNL1        0.0400
      9 C          65.1133   92.2124   11.3249 C.ar    1  UNL1        0.0365
     10 C          65.1124   91.7164   12.7404 C.ar    1  UNL1        0.1168
     11 C          65.7572   92.5322   13.8215 C.ar    1  UNL1        0.0365
     12 C          66.4029   93.8441   13.4869 C.ar    1  UNL1        0.0404
     13 C          66.4038   94.3401   12.0714 C.ar    1  UNL1        0.1450
     14 O          66.9581   95.5850   11.4444 O.2     1  UNL1       -0.4577
     15 C          63.0721   89.6363   15.6177 C.2     1  UNL1        0.3478
     16 O          63.6621   90.7766   16.3932 O.2     1  UNL1       -0.2481
     17 C          63.2801   88.2256   16.0831 C.ar    1  UNL1        0.1437
     18 C          62.7181   87.7798   17.4005 C.ar    1  UNL1        0.0187
     19 C          62.9261   86.3692   17.8659 C.ar    1  UNL1        0.0774
     20 C          63.6963   85.4042   17.0140 C.ar    1  UNL1        0.3018
     21 N          64.2583   85.8499   15.6966 N.ar    1  UNL1       -0.1517
     22 O          65.0284   84.8850   14.8447 O.co2   1  UNL1       -0.6187
     23 C          64.0502   87.2607   15.2312 C.ar    1  UNL1        0.3078
     24 N          62.1731   90.5611   11.8644 N.pl3   1  UNL1       -0.2585
     25 H          62.0006   91.4884   11.5824 H       1  UNL1        0.2589
     26 C          61.6380   89.4185   11.0532 C.3     1  UNL1        0.2142
     27 C          60.4738   89.7409   10.1638 C.3     1  UNL1        0.0490
     28 C          59.7218   88.8290    9.2402 C.3     1  UNL1        0.0057
     29 C          59.9484   87.3695    8.9778 C.3     1  UNL1        0.0216
     30 C          60.9827   86.4616    9.5741 C.3     1  UNL1        0.0940
     31 N          62.0461   86.7888   10.5803 N.am    1  UNL1       -0.2686
     32 C          62.3377   88.1048   11.2385 C.2     1  UNL1        0.2622
     33 O          63.4801   88.1072   12.2106 O.2     1  UNL1       -0.2712
     34 C          62.9354   85.6493   10.9812 C.3     1  UNL1        0.1794
     35 C          62.5200   84.7277   12.0892 C.2     1  UNL1        0.2459
     36 O          61.9113   85.2865   13.3411 O.2     1  UNL1       -0.2730
     37 N          62.7131   83.2471   11.9454 N.am    1  UNL1       -0.2781
     38 C          63.3050   82.5463   10.7585 C.3     1  UNL1        0.0935
     39 C          63.3060   81.0736   11.0428 C.3     1  UNL1        0.0233
     40 C          62.7147   80.8640   12.4053 C.3     1  UNL1        0.0233
     41 C          62.3483   82.2074   12.9631 C.3     1  UNL1        0.0935
@<TRIPOS>UNITY_ATOM_ATTR
21 1
charge 1
22 1
charge -1
@<TRIPOS>BOND
     1     5     6    1
     2     6     7   ar
     3     7     8   ar
     4     8     9   ar
     5     9    10   ar
     6    10     3    1
     7     3     1    1
     8     1     2    2
     9     2    15    1
    10    15    16    2
    11    15    17    1
    12    17    18   ar
    13    18    19   ar
    14    19    20   ar
    15    20    21   ar
    16    21    22    1
    17    21    23   ar
    18     1    24    1
    19    26    24    1
    20    26    27    1
    21    27    28    1
    22    28    29    1
    23    29    30    1
    24    30    31    1
    25    31    34    1
    26    34    35    1
    27    35    36    2
    28    35    37   am
    29    37    38    1
    30    38    39    1
    31    39    40    1
    32    40    41    1
    33    31    32   am
    34    32    33    2
    35    10    11   ar
    36    11    12   ar
    37    12    13   ar
    38    13    14   ar
    39    14     6   ar
    40    13     8   ar
    41    23    17   ar
    42    32    26    1
    43    41    37    1
    44     3     4    1
    45    24    25    1
@<TRIPOS>MOLECULE
*****
 41 45 0 0 0
SMALL
GASTEIGER

@<TRIPOS>ATOM
      1 C          64.4805   90.0871   13.4618 C.2     1  UNL1        0.3851
      2 N          65.7177   90.7980   13.9243 N.am    1  UNL1        0.0009
      3 N          63.3148   90.8733   12.9395 N.pl3   1  UNL1       -0.2438
      4 H          63.1664   91.7968   13.2469 H       1  UNL1        0.2647
      5 C          60.3389   85.9175    7.6284 C.3     1  UNL1        0.0725
      6 C          60.6609   87.0084    8.6064 C.ar    1  UNL1        0.1233
      7 C          61.9196   87.1254    9.4138 C.ar    1  UNL1        0.0361
      8 C          61.8173   88.3631   10.2550 C.ar    1  UNL1        0.0400
      9 C          62.7571   88.9838   11.2457 C.ar    1  UNL1        0.0365
     10 C          62.3749   90.2525   11.9488 C.ar    1  UNL1        0.1168
     11 C          61.0530   90.9004   11.6613 C.ar    1  UNL1        0.0365
     12 C          60.1132   90.2797   10.6706 C.ar    1  UNL1        0.0404
     13 C          60.4954   89.0110    9.9675 C.ar    1  UNL1        0.1450
     14 O          59.7807   88.1737    8.9486 O.2     1  UNL1       -0.4577
     15 C          65.7892   92.2951   13.8646 C.2     1  UNL1        0.3478
     16 O          65.4979   93.1094   15.0902 O.2     1  UNL1       -0.2481
     17 C          66.1519   92.9779   12.5792 C.ar    1  UNL1        0.1437
     18 C          66.5120   92.1629   11.3726 C.ar    1  UNL1        0.0187
     19 C          66.8747   92.8457   10.0873 C.ar    1  UNL1        0.0774
     20 C          66.8774   94.3437   10.0085 C.ar    1  UNL1        0.3018
     21 N          66.5174   95.1587   11.2152 N.ar    1  UNL1       -0.1517
     22 O          66.5201   96.6566   11.1365 O.co2   1  UNL1       -0.6187
     23 C          66.1546   94.4758   12.5006 C.ar    1  UNL1        0.3078
     24 N          64.4091   88.5899   13.5216 N.pl3   1  UNL1       -0.2585
     25 H          64.6564   88.0535   12.7340 H       1  UNL1        0.2589
     26 C          63.9609   87.9102   14.7814 C.3     1  UNL1        0.2142
     27 C          63.4699   88.8169   15.8708 C.3     1  UNL1        0.0490
     28 C          62.9596   88.4510   17.2331 C.3     1  UNL1        0.0057
     29 C          62.8144   87.0880   17.8424 C.3     1  UNL1        0.0216
     30 C          63.1435   85.7543   17.2399 C.3     1  UNL1        0.0940
     31 N          63.6991   85.4543   15.8793 N.am    1  UNL1       -0.2686
     32 C          64.0629   86.4137   14.7851 C.2     1  UNL1        0.2622
     33 O          64.5997   85.7948   13.5286 O.2     1  UNL1       -0.2712
     34 C          63.9203   84.0028   15.5722 C.3     1  UNL1        0.1794
     35 C          62.9020   83.2409   14.7768 C.2     1  UNL1        0.2459
     36 O          61.5490   82.9622   15.3613 O.2     1  UNL1       -0.2730
     37 N          63.2368   82.7578   13.3967 N.am    1  UNL1       -0.2781
     38 C          64.5411   82.9598   12.6840 C.3     1  UNL1        0.0935
     39 C          64.4364   82.3147   11.3340 C.3     1  UNL1        0.0233
     40 C          63.0674   81.7139   11.2122 C.3     1  UNL1        0.0233
     41 C          62.3260   81.9878   12.4871 C.3     1  UNL1        0.0935
@<TRIPOS>UNITY_ATOM_ATTR
21 1
charge 1
22 1
charge -1
@<TRIPOS>BOND
     1     5     6    1
     2     6     7   ar
     3     7     8   ar
     4     8     9   ar
     5     9    10   ar
     6    10     3    1
     7     3     1    1
     8     1     2    2
     9     2    15    1
    10    15    16    2
    11    15    17    1
    12    17    18   ar
    13    18    19   ar
    14    19    20   ar
    15    20    21   ar
    16    21    22    1
    17    21    23   ar
    18     1    24    1
    19    26    24    1
    20    26    27    1
    21    27    28    1
    22    28    29    1
    23    29    30    1
    24    30    31    1
    25    31    34    1
    26    34    35    1
    27    35    36    2
    28    35    37   am
    29    37    38    1
    30    38    39    1
    31    39    40    1
    32    40    41    1
    33    31    32   am
    34    32    33    2
    35    10    11   ar
    36    11    12   ar
    37    12    13   ar
    38    13    14   ar
    39    14     6   ar
    40    13     8   ar
    41    23    17   ar
    42    32    26    1
    43    41    37    1
    44     3     4    1
    45    24    25    1
@<TRIPOS>MOLECULE
*****
 41 45 0 0 0
SMALL
GASTEIGER

@<TRIPOS>ATOM
      1 C          61.0890   89.1401   10.1201 C.2     1  UNL1        0.3851
      2 N          59.8874   89.3870    9.2570 N.am    1  UNL1        0.0009
      3 N          62.2658   88.3896    9.5706 N.pl3   1  UNL1       -0.2438
      4 H          62.8936   88.8380    8.9590 H       1  UNL1        0.2647
      5 C          62.8426   81.8654   13.8978 C.3     1  UNL1        0.0725
      6 C          62.8025   82.9394   12.8514 C.ar    1  UNL1        0.1233
      7 C          62.4789   84.3855   13.0841 C.ar    1  UNL1        0.0361
      8 C          62.5554   85.0957   11.7651 C.ar    1  UNL1        0.0400
      9 C          62.3352   86.5294   11.3829 C.ar    1  UNL1        0.0365
     10 C          62.4859   86.9559    9.9528 C.ar    1  UNL1        0.1168
     11 C          62.8568   85.9488    8.9049 C.ar    1  UNL1        0.0365
     12 C          63.0769   84.5151    9.2871 C.ar    1  UNL1        0.0404
     13 C          62.9262   84.0886   10.7172 C.ar    1  UNL1        0.1450
     14 O          63.0789   82.7559   11.3886 O.2     1  UNL1       -0.4577
     15 C          59.8624   88.8833    7.8442 C.2     1  UNL1        0.3478
     16 O          60.2668   87.4703    7.5445 O.2     1  UNL1       -0.2481
     17 C          59.4331   89.7927    6.7313 C.ar    1  UNL1        0.1437
     18 C          60.4624   90.4492    5.8598 C.ar    1  UNL1        0.0187
     19 C          60.0331   91.3586    4.7468 C.ar    1  UNL1        0.0774
     20 C          58.5744   91.6115    4.5054 C.ar    1  UNL1        0.3018
     21 N          57.5451   90.9550    5.3769 N.ar    1  UNL1       -0.1517
     22 O          56.0864   91.2079    5.1354 O.co2   1  UNL1       -0.6187
     23 C          57.9745   90.0456    6.4898 C.ar    1  UNL1        0.3078
     24 N          61.1140   89.6437   11.5329 N.pl3   1  UNL1       -0.2585
     25 H          60.2773   89.7068   12.0479 H       1  UNL1        0.2589
     26 C          62.4137   90.0513   12.1609 C.3     1  UNL1        0.2142
     27 C          62.7287   89.4098   13.4798 C.3     1  UNL1        0.0490
     28 C          63.9344   89.6051   14.3505 C.3     1  UNL1        0.0057
     29 C          65.1230   90.4901   14.1174 C.3     1  UNL1        0.0216
     30 C          65.3993   91.3984   12.9561 C.3     1  UNL1        0.0940
     31 N          64.5553   91.6460   11.7410 N.am    1  UNL1       -0.2686
     32 C          63.2266   91.0465   11.3872 C.2     1  UNL1        0.2622
     33 O          62.6323   91.5026   10.0876 O.2     1  UNL1       -0.2712
     34 C          65.1139   92.6223   10.7486 C.3     1  UNL1        0.1794
     35 C          65.7165   93.9115   11.2225 C.2     1  UNL1        0.2459
     36 O          65.6990   94.2557   12.6824 O.2     1  UNL1       -0.2730
     37 N          66.3367   94.8566   10.2365 N.am    1  UNL1       -0.2781
     38 C          66.4279   94.6492    8.7537 C.3     1  UNL1        0.0935
     39 C          67.1221   95.8395    8.1611 C.3     1  UNL1        0.0233
     40 C          67.4599   96.7826    9.2775 C.3     1  UNL1        0.0233
     41 C          66.9745   96.1751   10.5602 C.3     1  UNL1        0.0935
@<TRIPOS>UNITY_ATOM_ATTR
21 1
charge 1
22 1
charge -1
@<TRIPOS>BOND
     1     5     6    1
     2     6     7   ar
     3     7     8   ar
     4     8     9   ar
     5     9    10   ar
     6    10     3    1
     7     3     1    1
     8     1     2    2
     9     2    15    1
    10    15    16    2
    11    15    17    1
    12    17    18   ar
    13    18    19   ar
    14    19    20   ar
    15    20    21   ar
    16    21    22    1
    17    21    23   ar
    18     1    24    1
    19    26    24    1
    20    26    27    1
    21    27    28    1
    22    28    29    1
    23    29    30    1
    24    30    31    1
    25    31    34    1
    26    34    35    1
    27    35    36    2
    28    35    37   am
    29    37    38    1
    30    38    39    1
    31    39    40    1
    32    40    41    1
    33    31    32   am
    34    32    33    2
    35    10    11   ar
    36    11    12   ar
    37    12    13   ar
    38    13    14   ar
    39    14     6   ar
    40    13     8   ar
    41    23    17   ar
    42    32    26    1
    43    41    37    1
    44     3     4    1
    45    24    25    1
@<TRIPOS>MOLECULE
*****
 41 45 0 0 0
SMALL
GASTEIGER

@<TRIPOS>ATOM
      1 C          62.2472   90.0550   12.9918 C.2     1  UNL1        0.3851
      2 N          61.9037   89.8817   14.4415 N.am    1  UNL1        0.0009
      3 N          63.6702   89.9202   12.5368 N.pl3   1  UNL1       -0.2438
      4 H          63.9490   89.1301   12.0198 H       1  UNL1        0.2647
      5 C          69.3604   93.8736   16.2267 C.3     1  UNL1        0.0725
      6 C          68.2756   93.3404   15.3385 C.ar    1  UNL1        0.1233
      7 C          67.5429   92.0445   15.5224 C.ar    1  UNL1        0.0361
      8 C          66.5474   91.9126   14.4081 C.ar    1  UNL1        0.0400
      9 C          65.5492   90.8437   14.0752 C.ar    1  UNL1        0.0365
     10 C          64.6685   90.9891   12.8698 C.ar    1  UNL1        0.1168
     11 C          64.7860   92.2036   11.9972 C.ar    1  UNL1        0.0365
     12 C          65.7842   93.2725   12.3301 C.ar    1  UNL1        0.0404
     13 C          66.6649   93.1271   13.5355 C.ar    1  UNL1        0.1450
     14 O          67.7330   94.0094   14.1106 O.2     1  UNL1       -0.4577
     15 C          62.9832   89.5737   15.4365 C.2     1  UNL1        0.3478
     16 O          63.7414   90.6906   16.0904 O.2     1  UNL1       -0.2481
     17 C          63.3045   88.1488   15.7775 C.ar    1  UNL1        0.1437
     18 C          62.7082   87.5176   17.0007 C.ar    1  UNL1        0.0187
     19 C          63.0294   86.0927   17.3417 C.ar    1  UNL1        0.0774
     20 C          63.9470   85.2988   16.4596 C.ar    1  UNL1        0.3018
     21 N          64.5433   85.9300   15.2365 N.ar    1  UNL1       -0.1517
     22 O          65.4608   85.1363   14.3544 O.co2   1  UNL1       -0.6187
     23 C          64.2220   87.3550   14.8955 C.ar    1  UNL1        0.3078
     24 N          61.1677   90.3630   11.9968 N.pl3   1  UNL1       -0.2585
     25 H          60.6392   91.1890   12.0838 H       1  UNL1        0.2589
     26 C          60.8936   89.4125   10.8692 C.3     1  UNL1        0.2142
     27 C          60.3817   90.0343    9.6037 C.3     1  UNL1        0.0490
     28 C          60.0174   89.3631    8.3127 C.3     1  UNL1        0.0057
     29 C          60.0751   87.9042    7.9683 C.3     1  UNL1        0.0216
     30 C          60.5113   86.7564    8.8298 C.3     1  UNL1        0.0940
     31 N          60.9976   86.7839   10.2486 N.am    1  UNL1       -0.2686
     32 C          61.1677   87.9660   11.1562 C.2     1  UNL1        0.2622
     33 O          61.6796   87.6611   12.5328 O.2     1  UNL1       -0.2712
     34 C          61.3618   85.4533   10.8376 C.3     1  UNL1        0.1794
     35 C          62.6508   84.7901   10.4520 C.2     1  UNL1        0.2459
     36 O          63.3129   85.1366    9.1515 O.2     1  UNL1       -0.2730
     37 N          63.2777   83.7804   11.3672 N.am    1  UNL1       -0.2781
     38 C          62.7349   83.3348   12.6926 C.3     1  UNL1        0.0935
     39 C          63.6791   82.3180   13.2621 C.3     1  UNL1        0.0233
     40 C          64.8056   82.1351   12.2887 C.3     1  UNL1        0.0233
     41 C          64.5575   83.0389   11.1175 C.3     1  UNL1        0.0935
@<TRIPOS>UNITY_ATOM_ATTR
21 1
charge 1
22 1
charge -1
@<TRIPOS>BOND
     1     5     6    1
     2     6     7   ar
     3     7     8   ar
     4     8     9   ar
     5     9    10   ar
     6    10     3    1
     7     3     1    1
     8     1     2    2
     9     2    15    1
    10    15    16    2
    11    15    17    1
    12    17    18   ar
    13    18    19   ar
    14    19    20   ar
    15    20    21   ar
    16    21    22    1
    17    21    23   ar
    18     1    24    1
    19    26    24    1
    20    26    27    1
    21    27    28    1
    22    28    29    1
    23    29    30    1
    24    30    31    1
    25    31    34    1
    26    34    35    1
    27    35    36    2
    28    35    37   am
    29    37    38    1
    30    38    39    1
    31    39    40    1
    32    40    41    1
    33    31    32   am
    34    32    33    2
    35    10    11   ar
    36    11    12   ar
    37    12    13   ar
    38    13    14   ar
    39    14     6   ar
    40    13     8   ar
    41    23    17   ar
    42    32    26    1
    43    41    37    1
    44     3     4    1
    45    24    25    1
@<TRIPOS>MOLECULE
*****
 41 45 0 0 0
SMALL
GASTEIGER

@<TRIPOS>ATOM
      1 C          58.6129   93.5719   -0.3340 C.2     1  UNL1        0.3851
      2 N          59.1585   93.2537    1.0265 N.am    1  UNL1        0.0009
      3 N          59.1415   94.7500   -1.0973 N.pl3   1  UNL1       -0.2438
      4 H          58.8795   95.6627   -0.8373 H       1  UNL1        0.2647
      5 C          65.2786   92.3170   -5.3446 C.3     1  UNL1        0.0725
      6 C          64.0210   92.9067   -4.7783 C.ar    1  UNL1        0.1233
      7 C          63.5430   92.7709   -3.3630 C.ar    1  UNL1        0.0361
      8 C          62.2472   93.5160   -3.2377 C.ar    1  UNL1        0.0400
      9 C          61.3196   93.7285   -2.0783 C.ar    1  UNL1        0.0365
     10 C          60.0691   94.5374   -2.2568 C.ar    1  UNL1        0.1168
     11 C          59.7462   95.1338   -3.5947 C.ar    1  UNL1        0.0365
     12 C          60.6738   94.9213   -4.7542 C.ar    1  UNL1        0.0404
     13 C          61.9243   94.1124   -4.5757 C.ar    1  UNL1        0.1450
     14 O          63.0206   93.7358   -5.5277 O.2     1  UNL1       -0.4577
     15 C          60.2327   94.1136    1.6238 C.2     1  UNL1        0.3478
     16 O          59.8927   95.4706    2.1651 O.2     1  UNL1       -0.2481
     17 C          61.6468   93.6165    1.6797 C.ar    1  UNL1        0.1437
     18 C          62.7119   94.2922    0.8678 C.ar    1  UNL1        0.0187
     19 C          64.1260   93.7951    0.9237 C.ar    1  UNL1        0.0774
     20 C          64.4751   92.6224    1.7915 C.ar    1  UNL1        0.3018
     21 N          63.4100   91.9468    2.6033 N.ar    1  UNL1       -0.1517
     22 O          63.7590   90.7741    3.4710 O.co2   1  UNL1       -0.6187
     23 C          61.9958   92.4439    2.5474 C.ar    1  UNL1        0.3078
     24 N          57.5386   92.7119   -0.9312 N.pl3   1  UNL1       -0.2585
     25 H          57.1731   91.9545   -0.4195 H       1  UNL1        0.2589
     26 C          57.0215   93.0061   -2.3082 C.3     1  UNL1        0.2142
     27 C          57.4111   92.0243   -3.3733 C.3     1  UNL1        0.0490
     28 C          57.0585   92.0371   -4.8312 C.3     1  UNL1        0.0057
     29 C          56.2292   93.0349   -5.5841 C.3     1  UNL1        0.0216
     30 C          55.5477   94.2662   -5.0651 C.3     1  UNL1        0.0940
     31 N          55.5272   94.8039   -3.6649 N.am    1  UNL1       -0.2686
     32 C          56.1831   94.2431   -2.4380 C.2     1  UNL1        0.2622
     33 O          55.9727   95.0224   -1.1737 O.2     1  UNL1       -0.2712
     34 C          54.7477   96.0698   -3.4653 C.3     1  UNL1        0.1794
     35 C          53.2907   96.0060   -3.1147 C.2     1  UNL1        0.2459
     36 O          52.8699   95.8400   -1.6846 O.2     1  UNL1       -0.2730
     37 N          52.2544   96.1081   -4.1944 N.am    1  UNL1       -0.2781
     38 C          52.5223   96.2755   -5.6608 C.3     1  UNL1        0.0935
     39 C          51.2017   96.3317   -6.3698 C.3     1  UNL1        0.0233
     40 C          50.1175   96.1990   -5.3417 C.3     1  UNL1        0.0233
     41 C          50.7682   96.0608   -3.9972 C.3     1  UNL1        0.0935
@<TRIPOS>UNITY_ATOM_ATTR
21 1
charge 1
22 1
charge -1
@<TRIPOS>BOND
     1     5     6    1
     2     6     7   ar
     3     7     8   ar
     4     8     9   ar
     5     9    10   ar
     6    10     3    1
     7     3     1    1
     8     1     2    2
     9     2    15    1
    10    15    16    2
    11    15    17    1
    12    17    18   ar
    13    18    19   ar
    14    19    20   ar
    15    20    21   ar
    16    21    22    1
    17    21    23   ar
    18     1    24    1
    19    26    24    1
    20    26    27    1
    21    27    28    1
    22    28    29    1
    23    29    30    1
    24    30    31    1
    25    31    34    1
    26    34    35    1
    27    35    36    2
    28    35    37   am
    29    37    38    1
    30    38    39    1
    31    39    40    1
    32    40    41    1
    33    31    32   am
    34    32    33    2
    35    10    11   ar
    36    11    12   ar
    37    12    13   ar
    38    13    14   ar
    39    14     6   ar
    40    13     8   ar
    41    23    17   ar
    42    32    26    1
    43    41    37    1
    44     3     4    1
    45    24    25    1
