@<TRIPOS>MOLECULE
*****
 30 33 0 0 0
SMALL
GASTEIGER

@<TRIPOS>ATOM
      1 C          63.4066   84.9668   15.6950 C.2     1  UNL1        0.2400
      2 O          62.6987   84.2694   16.8186 O.2     1  UNL1       -0.2734
      3 N          63.5287   86.4619   15.6987 N.am    1  UNL1       -0.2783
      4 C          62.9429   87.2594   16.8258 C.3     1  UNL1        0.0951
      5 C          63.0649   88.7545   16.8294 C.3     1  UNL1        0.0410
      6 C          63.7728   89.4519   15.7058 C.3     1  UNL1        0.0722
      7 C          64.3587   88.6542   14.5786 C.3     1  UNL1        0.0410
      8 C          64.2366   87.1592   14.5750 C.3     1  UNL1        0.0951
      9 N          65.4809   84.0383   14.4360 N.3     1  UNL1       -0.3148
     10 C          63.9924   84.1692   14.5678 C.3     1  UNL1        0.1329
     11 H          65.7010   83.4666   13.6204 H       1  UNL1        0.1192
     12 H          65.8587   83.5955   15.2736 H       1  UNL1        0.1192
     13 C          63.0898   83.5026   13.5724 C.3     1  UNL1        0.0512
     14 C          63.1007   83.9417   12.1381 C.ar    1  UNL1       -0.0203
     15 C          63.8902   83.1692   11.1233 C.ar    1  UNL1       -0.0042
     16 C          63.9011   83.6082    9.6890 C.ar    1  UNL1       -0.0003
     17 C          63.1225   84.8197    9.2696 C.ar    1  UNL1       -0.0000
     18 C          62.3330   85.5923   10.2845 C.ar    1  UNL1       -0.0003
     19 C          62.3221   85.1532   11.7188 C.ar    1  UNL1       -0.0042
     20 N          63.8949   90.9469   15.7094 N.pl3   1  UNL1       -0.3369
     21 H          63.4034   91.4794   16.3759 H       1  UNL1        0.1465
     22 C          64.7659   91.6307   14.6975 C.2     1  UNL1        0.0262
     23 C          66.0341   92.3035   15.1319 C.2     1  UNL1        0.0118
     24 C          66.9051   92.9873   14.1200 C.2     1  UNL1        0.0216
     25 C          66.5077   92.9982   12.6736 C.2     1  UNL1        0.1008
     26 N          67.1596   93.5876   11.4581 N.2     1  UNL1       -0.1482
     27 N          66.2942   93.2790   10.2724 N.2     1  UNL1       -0.1467
     28 C          65.1074   92.4989   10.7551 C.2     1  UNL1        0.1198
     29 C          65.2394   92.3254   12.2392 C.2     1  UNL1        0.0238
     30 C          64.3685   91.6416   13.2512 C.3     1  UNL1        0.0703
@<TRIPOS>BOND
     1    10     9    1
     2    10    13    1
     3    13    14    1
     4    14    15   ar
     5    15    16   ar
     6    16    17   ar
     7    17    18   ar
     8    18    19   ar
     9    10     1    1
    10     1     2    2
    11     1     3   am
    12     3     4    1
    13     4     5    1
    14     5     6    1
    15     6    20    1
    16    20    22    1
    17    22    23    2
    18    23    24    1
    19    24    25    2
    20    25    26    1
    21    26    27    2
    22    27    28    1
    23    28    29    2
    24    29    30    1
    25     6     7    1
    26     7     8    1
    27    19    14   ar
    28     8     3    1
    29    30    22    1
    30    29    25    1
    31     9    11    1
    32     9    12    1
    33    20    21    1
@<TRIPOS>MOLECULE
*****
 30 33 0 0 0
SMALL
GASTEIGER

@<TRIPOS>ATOM
      1 C          63.0368   85.6300   16.2181 C.2     1  UNL1        0.2400
      2 O          62.2861   85.2540   17.4612 O.2     1  UNL1       -0.2734
      3 N          63.3906   87.0647   15.9608 N.am    1  UNL1       -0.2783
      4 C          62.9939   88.1234   16.9464 C.3     1  UNL1        0.0951
      5 C          63.3479   89.5583   16.6891 C.3     1  UNL1        0.0410
      6 C          64.0985   89.9342   15.4460 C.3     1  UNL1        0.0722
      7 C          64.4952   88.8754   14.4603 C.3     1  UNL1        0.0410
      8 C          64.1413   87.4406   14.7177 C.3     1  UNL1        0.0951
      9 N          64.7304   83.8369   15.4018 N.3     1  UNL1       -0.3148
     10 C          63.4335   84.5712   15.2324 C.3     1  UNL1        0.1329
     11 H          64.8380   83.1584   14.6478 H       1  UNL1        0.1192
     12 H          64.7316   83.3513   16.2988 H       1  UNL1        0.1192
     13 C          62.5333   84.2467   14.0773 C.3     1  UNL1        0.0512
     14 C          62.5687   82.8803   13.4594 C.ar    1  UNL1       -0.0203
     15 C          62.1152   81.6883   14.2490 C.ar    1  UNL1       -0.0042
     16 C          62.1506   80.3219   13.6312 C.ar    1  UNL1       -0.0003
     17 C          62.6395   80.1475   12.2239 C.ar    1  UNL1       -0.0000
     18 C          63.0930   81.3395   11.4344 C.ar    1  UNL1       -0.0003
     19 C          63.0576   82.7060   12.0521 C.ar    1  UNL1       -0.0042
     20 N          64.4524   91.3690   15.1887 N.pl3   1  UNL1       -0.3369
     21 H          64.0422   92.0819   15.7297 H       1  UNL1        0.1465
     22 C          65.4313   91.7175   14.1069 C.2     1  UNL1        0.0262
     23 C          66.9042   91.5824   14.3562 C.2     1  UNL1        0.0118
     24 C          67.8832   91.9309   13.2744 C.2     1  UNL1        0.0216
     25 C          67.3891   92.4147   11.9433 C.2     1  UNL1        0.1008
     26 N          68.1105   92.8299   10.6954 N.2     1  UNL1       -0.1482
     27 N          67.0834   93.2217    9.6749 N.2     1  UNL1       -0.1467
     28 C          65.7272   93.0486   10.2920 C.2     1  UNL1        0.1198
     29 C          65.9161   92.5498   11.6940 C.2     1  UNL1        0.0238
     30 C          64.9373   92.2013   12.7758 C.3     1  UNL1        0.0703
@<TRIPOS>BOND
     1    10     9    1
     2    10    13    1
     3    13    14    1
     4    14    15   ar
     5    15    16   ar
     6    16    17   ar
     7    17    18   ar
     8    18    19   ar
     9    10     1    1
    10     1     2    2
    11     1     3   am
    12     3     4    1
    13     4     5    1
    14     5     6    1
    15     6    20    1
    16    20    22    1
    17    22    23    2
    18    23    24    1
    19    24    25    2
    20    25    26    1
    21    26    27    2
    22    27    28    1
    23    28    29    2
    24    29    30    1
    25     6     7    1
    26     7     8    1
    27    19    14   ar
    28     8     3    1
    29    30    22    1
    30    29    25    1
    31     9    11    1
    32     9    12    1
    33    20    21    1
@<TRIPOS>MOLECULE
*****
 30 33 0 0 0
SMALL
GASTEIGER

@<TRIPOS>ATOM
      1 C          63.5946   83.3866   14.1571 C.2     1  UNL1        0.2400
      2 O          63.3263   82.3593   15.2167 O.2     1  UNL1       -0.2734
      3 N          63.6802   84.8384   14.5247 N.am    1  UNL1       -0.2783
      4 C          63.4975   85.2628   15.9516 C.3     1  UNL1        0.0951
      5 C          63.5831   86.7146   16.3192 C.3     1  UNL1        0.0410
      6 C          63.8514   87.7419   15.2596 C.3     1  UNL1        0.0722
      7 C          64.0341   87.3174   13.8326 C.3     1  UNL1        0.0410
      8 C          63.9485   85.8657   13.4650 C.3     1  UNL1        0.0951
      9 N          65.1102   82.4574   12.2625 N.3     1  UNL1       -0.3148
     10 C          63.7773   82.9622   12.7301 C.3     1  UNL1        0.1329
     11 H          65.0542   82.2156   11.2732 H       1  UNL1        0.1192
     12 H          65.3683   81.6302   12.8006 H       1  UNL1        0.1192
     13 C          62.6272   83.0426   11.7706 C.3     1  UNL1        0.0512
     14 C          62.5527   84.1679   10.7815 C.ar    1  UNL1       -0.0203
     15 C          61.7192   85.3778   11.0835 C.ar    1  UNL1       -0.0042
     16 C          61.6446   86.5031   10.0945 C.ar    1  UNL1       -0.0003
     17 C          62.4037   86.4184    8.8035 C.ar    1  UNL1       -0.0000
     18 C          63.2372   85.2085    8.5015 C.ar    1  UNL1       -0.0003
     19 C          63.3118   84.0832    9.4905 C.ar    1  UNL1       -0.0042
     20 N          63.9369   89.1937   15.6272 N.pl3   1  UNL1       -0.3369
     21 H          63.7569   89.4788   16.5521 H       1  UNL1        0.1465
     22 C          64.2969   90.2111   14.5853 C.2     1  UNL1        0.0262
     23 C          63.4709   90.3333   13.3393 C.2     1  UNL1        0.0118
     24 C          63.8309   91.3507   12.2975 C.2     1  UNL1        0.0216
     25 C          65.0170   92.2459   12.5018 C.2     1  UNL1        0.1008
     26 N          65.6106   93.3338   11.6568 N.2     1  UNL1       -0.1482
     27 N          66.8036   93.8840   12.3807 N.2     1  UNL1       -0.1467
     28 C          66.9473   93.1362   13.6730 C.2     1  UNL1        0.1198
     29 C          65.8431   92.1237   13.7479 C.2     1  UNL1        0.0238
     30 C          65.4830   91.1063   14.7896 C.3     1  UNL1        0.0703
@<TRIPOS>BOND
     1    10     9    1
     2    10    13    1
     3    13    14    1
     4    14    15   ar
     5    15    16   ar
     6    16    17   ar
     7    17    18   ar
     8    18    19   ar
     9    10     1    1
    10     1     2    2
    11     1     3   am
    12     3     4    1
    13     4     5    1
    14     5     6    1
    15     6    20    1
    16    20    22    1
    17    22    23    2
    18    23    24    1
    19    24    25    2
    20    25    26    1
    21    26    27    2
    22    27    28    1
    23    28    29    2
    24    29    30    1
    25     6     7    1
    26     7     8    1
    27    19    14   ar
    28     8     3    1
    29    30    22    1
    30    29    25    1
    31     9    11    1
    32     9    12    1
    33    20    21    1
@<TRIPOS>MOLECULE
*****
 30 33 0 0 0
SMALL
GASTEIGER

@<TRIPOS>ATOM
      1 C          60.6104   89.1508   11.3229 C.2     1  UNL1        0.2400
      2 O          59.7235   88.7110   12.4498 O.2     1  UNL1       -0.2734
      3 N          61.8919   89.8734   11.6152 N.am    1  UNL1       -0.2783
      4 C          62.2866   90.1562   13.0344 C.3     1  UNL1        0.0951
      5 C          63.5682   90.8788   13.3267 C.3     1  UNL1        0.0410
      6 C          64.4551   91.3186   12.1998 C.3     1  UNL1        0.0722
      7 C          64.0604   91.0358   10.7805 C.3     1  UNL1        0.0410
      8 C          62.7788   90.3132   10.4882 C.3     1  UNL1        0.0951
      9 N          60.2577   89.9645    8.8808 N.3     1  UNL1       -0.3148
     10 C          60.2157   88.8680    9.9036 C.3     1  UNL1        0.1329
     11 H          59.9595   89.5978    7.9769 H       1  UNL1        0.1192
     12 H          61.2097   90.3226    8.8052 H       1  UNL1        0.1192
     13 C          59.7792   87.4889    9.5071 C.3     1  UNL1        0.0512
     14 C          60.7208   86.5888    8.7633 C.ar    1  UNL1       -0.0203
     15 C          60.2716   85.9104    7.5031 C.ar    1  UNL1       -0.0042
     16 C          61.2131   85.0104    6.7592 C.ar    1  UNL1       -0.0003
     17 C          62.6039   84.7888    7.2755 C.ar    1  UNL1       -0.0000
     18 C          63.0531   85.4672    8.5356 C.ar    1  UNL1       -0.0003
     19 C          62.1116   86.3672    9.2796 C.ar    1  UNL1       -0.0042
     20 N          65.7367   92.0412   12.4922 N.pl3   1  UNL1       -0.3369
     21 H          66.3527   91.6934   13.1768 H       1  UNL1        0.1465
     22 C          66.0796   93.2937   11.7412 C.2     1  UNL1        0.0262
     23 C          66.0151   94.6236   12.4318 C.2     1  UNL1        0.0118
     24 C          66.3580   95.8761   11.6808 C.2     1  UNL1        0.0216
     25 C          66.7654   95.7984   10.2393 C.2     1  UNL1        0.1008
     26 N          67.1574   96.8545    9.2489 N.2     1  UNL1       -0.1482
     27 N          67.4642   96.1771    7.9462 N.2     1  UNL1       -0.1467
     28 C          67.2618   94.7025    8.1315 C.2     1  UNL1        0.1198
     29 C          66.8299   94.4684    9.5488 C.2     1  UNL1        0.0238
     30 C          66.4870   93.2160   10.2997 C.3     1  UNL1        0.0703
@<TRIPOS>BOND
     1    10     9    1
     2    10    13    1
     3    13    14    1
     4    14    15   ar
     5    15    16   ar
     6    16    17   ar
     7    17    18   ar
     8    18    19   ar
     9    10     1    1
    10     1     2    2
    11     1     3   am
    12     3     4    1
    13     4     5    1
    14     5     6    1
    15     6    20    1
    16    20    22    1
    17    22    23    2
    18    23    24    1
    19    24    25    2
    20    25    26    1
    21    26    27    2
    22    27    28    1
    23    28    29    2
    24    29    30    1
    25     6     7    1
    26     7     8    1
    27    19    14   ar
    28     8     3    1
    29    30    22    1
    30    29    25    1
    31     9    11    1
    32     9    12    1
    33    20    21    1
@<TRIPOS>MOLECULE
*****
 30 33 0 0 0
SMALL
GASTEIGER

@<TRIPOS>ATOM
      1 C          60.8761   88.4720   10.8996 C.2     1  UNL1        0.2400
      2 O          59.9372   87.9500   11.9466 O.2     1  UNL1       -0.2734
      3 N          61.9533   89.4455   11.2764 N.am    1  UNL1       -0.2783
      4 C          62.0916   89.8970   12.7000 C.3     1  UNL1        0.0951
      5 C          63.1689   90.8705   13.0768 C.3     1  UNL1        0.0410
      6 C          64.1077   91.3925   12.0298 C.3     1  UNL1        0.0722
      7 C          63.9693   90.9409   10.6061 C.3     1  UNL1        0.0410
      8 C          62.8921   89.9674   10.2293 C.3     1  UNL1        0.0951
      9 N          59.5551   88.4561    8.6625 N.3     1  UNL1       -0.3148
     10 C          60.7377   88.0204    9.4759 C.3     1  UNL1        0.1329
     11 H          59.6224   88.0593    7.7252 H       1  UNL1        0.1192
     12 H          59.5415   89.4741    8.6005 H       1  UNL1        0.1192
     13 C          61.7819   87.1333    8.8656 C.3     1  UNL1        0.0512
     14 C          62.3026   85.9522    9.6298 C.ar    1  UNL1       -0.0203
     15 C          63.1457   84.9231    8.9368 C.ar    1  UNL1       -0.0042
     16 C          63.6664   83.7419    9.7009 C.ar    1  UNL1       -0.0003
     17 C          63.3439   83.5900   11.1579 C.ar    1  UNL1       -0.0000
     18 C          62.5008   84.6191   11.8508 C.ar    1  UNL1       -0.0003
     19 C          61.9801   85.8002   11.0868 C.ar    1  UNL1       -0.0042
     20 N          65.1849   92.3659   12.4065 N.pl3   1  UNL1       -0.3369
     21 H          65.4013   92.5180   13.3549 H       1  UNL1        0.1465
     22 C          65.9325   93.1077   11.3383 C.2     1  UNL1        0.0262
     23 C          67.0374   92.4274   10.5859 C.2     1  UNL1        0.0118
     24 C          67.7850   93.1692    9.5177 C.2     1  UNL1        0.0216
     25 C          67.4275   94.5913    9.2020 C.2     1  UNL1        0.1008
     26 N          67.9832   95.5692    8.2096 N.2     1  UNL1       -0.1482
     27 N          67.2216   96.8540    8.3487 N.2     1  UNL1       -0.1467
     28 C          66.1953   96.6701    9.4271 C.2     1  UNL1        0.1198
     29 C          66.3225   95.2717    9.9544 C.2     1  UNL1        0.0238
     30 C          65.5750   94.5299   11.0226 C.3     1  UNL1        0.0703
@<TRIPOS>BOND
     1    10     9    1
     2    10    13    1
     3    13    14    1
     4    14    15   ar
     5    15    16   ar
     6    16    17   ar
     7    17    18   ar
     8    18    19   ar
     9    10     1    1
    10     1     2    2
    11     1     3   am
    12     3     4    1
    13     4     5    1
    14     5     6    1
    15     6    20    1
    16    20    22    1
    17    22    23    2
    18    23    24    1
    19    24    25    2
    20    25    26    1
    21    26    27    2
    22    27    28    1
    23    28    29    2
    24    29    30    1
    25     6     7    1
    26     7     8    1
    27    19    14   ar
    28     8     3    1
    29    30    22    1
    30    29    25    1
    31     9    11    1
    32     9    12    1
    33    20    21    1
@<TRIPOS>MOLECULE
*****
 30 33 0 0 0
SMALL
GASTEIGER

@<TRIPOS>ATOM
      1 C          60.9047   88.4876   10.6903 C.2     1  UNL1        0.2400
      2 O          60.6027   87.5501   11.8216 O.2     1  UNL1       -0.2734
      3 N          61.9397   89.5598   10.8607 N.am    1  UNL1       -0.2783
      4 C          62.6728   89.6945   12.1623 C.3     1  UNL1        0.0951
      5 C          63.7079   90.7667   12.3327 C.3     1  UNL1        0.0410
      6 C          64.0099   91.7042   11.2014 C.3     1  UNL1        0.0722
      7 C          63.2767   91.5695    9.8997 C.3     1  UNL1        0.0410
      8 C          62.2417   90.4973    9.7293 C.3     1  UNL1        0.0951
      9 N          59.8283   89.5761    8.5911 N.3     1  UNL1       -0.3148
     10 C          60.1716   88.3529    9.3886 C.3     1  UNL1        0.1329
     11 H          59.3348   89.3009    7.7419 H       1  UNL1        0.1192
     12 H          60.6847   90.0707    8.3416 H       1  UNL1        0.1192
     13 C          59.7818   86.9951    8.8843 C.3     1  UNL1        0.0512
     14 C          60.8027   86.1205    8.2188 C.ar    1  UNL1       -0.0203
     15 C          62.1421   85.9096    8.8603 C.ar    1  UNL1       -0.0042
     16 C          63.1631   85.0351    8.1949 C.ar    1  UNL1       -0.0003
     17 C          62.8446   84.3715    6.8879 C.ar    1  UNL1       -0.0000
     18 C          61.5052   84.5824    6.2464 C.ar    1  UNL1       -0.0003
     19 C          60.4843   85.4569    6.9119 C.ar    1  UNL1       -0.0042
     20 N          65.0449   92.7764   11.3718 N.pl3   1  UNL1       -0.3369
     21 H          64.9736   93.6152   10.8612 H       1  UNL1        0.1465
     22 C          66.1888   92.5706   12.3201 C.2     1  UNL1        0.0262
     23 C          67.4641   91.9491   11.8333 C.2     1  UNL1        0.0118
     24 C          68.6080   91.7433   12.7817 C.2     1  UNL1        0.0216
     25 C          68.4764   92.1591   14.2168 C.2     1  UNL1        0.1008
     26 N          69.4263   92.0823   15.3752 N.2     1  UNL1       -0.1482
     27 N          68.7380   92.6565   16.5779 N.2     1  UNL1       -0.1467
     28 C          67.3627   93.0881   16.1629 C.2     1  UNL1        0.1198
     29 C          67.2010   92.7807   14.7037 C.2     1  UNL1        0.0238
     30 C          66.0572   92.9864   13.7553 C.3     1  UNL1        0.0703
@<TRIPOS>BOND
     1    10     9    1
     2    10    13    1
     3    13    14    1
     4    14    15   ar
     5    15    16   ar
     6    16    17   ar
     7    17    18   ar
     8    18    19   ar
     9    10     1    1
    10     1     2    2
    11     1     3   am
    12     3     4    1
    13     4     5    1
    14     5     6    1
    15     6    20    1
    16    20    22    1
    17    22    23    2
    18    23    24    1
    19    24    25    2
    20    25    26    1
    21    26    27    2
    22    27    28    1
    23    28    29    2
    24    29    30    1
    25     6     7    1
    26     7     8    1
    27    19    14   ar
    28     8     3    1
    29    30    22    1
    30    29    25    1
    31     9    11    1
    32     9    12    1
    33    20    21    1
@<TRIPOS>MOLECULE
*****
 30 33 0 0 0
SMALL
GASTEIGER

@<TRIPOS>ATOM
      1 C          63.2076   86.5326   13.1008 C.2     1  UNL1        0.2400
      2 O          63.5842   85.7334   14.3130 O.2     1  UNL1       -0.2734
      3 N          63.5611   87.9883   13.0226 N.am    1  UNL1       -0.2783
      4 C          64.2911   88.6447   14.1566 C.3     1  UNL1        0.0951
      5 C          64.6446   90.1005   14.0785 C.3     1  UNL1        0.0410
      6 C          64.2680   90.8997   12.8662 C.3     1  UNL1        0.0722
      7 C          63.5380   90.2431   11.7322 C.3     1  UNL1        0.0410
      8 C          63.1845   88.7875   11.8103 C.3     1  UNL1        0.0951
      9 N          62.3817   84.3807   11.9021 N.3     1  UNL1       -0.3148
     10 C          62.4776   85.8762   11.9667 C.3     1  UNL1        0.1329
     11 H          61.8550   84.1093   11.0718 H       1  UNL1        0.1192
     12 H          61.9056   84.0342   12.7350 H       1  UNL1        0.1192
     13 C          61.8434   86.7153   10.8973 C.3     1  UNL1        0.0512
     14 C          61.6969   86.1728    9.5064 C.ar    1  UNL1       -0.0203
     15 C          60.3873   86.2996    8.7861 C.ar    1  UNL1       -0.0042
     16 C          60.2406   85.7572    7.3954 C.ar    1  UNL1       -0.0003
     17 C          61.4036   85.0879    6.7250 C.ar    1  UNL1       -0.0000
     18 C          62.7132   84.9611    7.4453 C.ar    1  UNL1       -0.0003
     19 C          62.8599   85.5035    8.8361 C.ar    1  UNL1       -0.0042
     20 N          64.6215   92.3553   12.7881 N.pl3   1  UNL1       -0.3369
     21 H          64.2320   92.9916   13.4305 H       1  UNL1        0.1465
     22 C          65.5685   92.8414   11.7312 C.2     1  UNL1        0.0262
     23 C          66.7357   91.9928   11.3222 C.2     1  UNL1        0.0118
     24 C          67.6826   92.4789   10.2652 C.2     1  UNL1        0.0216
     25 C          67.4622   93.8137    9.6173 C.2     1  UNL1        0.1008
     26 N          68.2219   94.5512    8.5548 N.2     1  UNL1       -0.1482
     27 N          67.5241   95.8557    8.3072 N.2     1  UNL1       -0.1467
     28 C          66.3332   95.9244    9.2166 C.2     1  UNL1        0.1198
     29 C          66.2949   94.6623   10.0263 C.2     1  UNL1        0.0238
     30 C          65.3481   94.1762   11.0832 C.3     1  UNL1        0.0703
@<TRIPOS>BOND
     1    10     9    1
     2    10    13    1
     3    13    14    1
     4    14    15   ar
     5    15    16   ar
     6    16    17   ar
     7    17    18   ar
     8    18    19   ar
     9    10     1    1
    10     1     2    2
    11     1     3   am
    12     3     4    1
    13     4     5    1
    14     5     6    1
    15     6    20    1
    16    20    22    1
    17    22    23    2
    18    23    24    1
    19    24    25    2
    20    25    26    1
    21    26    27    2
    22    27    28    1
    23    28    29    2
    24    29    30    1
    25     6     7    1
    26     7     8    1
    27    19    14   ar
    28     8     3    1
    29    30    22    1
    30    29    25    1
    31     9    11    1
    32     9    12    1
    33    20    21    1
@<TRIPOS>MOLECULE
*****
 30 33 0 0 0
SMALL
GASTEIGER

@<TRIPOS>ATOM
      1 C          63.3194   84.8242   13.2873 C.2     1  UNL1        0.2400
      2 O          63.6712   83.7337   14.2553 O.2     1  UNL1       -0.2734
      3 N          63.6203   86.2540   13.6265 N.am    1  UNL1       -0.2783
      4 C          64.2729   86.5934   14.9336 C.3     1  UNL1        0.0951
      5 C          64.5739   88.0233   15.2729 C.3     1  UNL1        0.0410
      6 C          64.2221   89.1138   14.3049 C.3     1  UNL1        0.0722
      7 C          63.5693   88.7743   12.9976 C.3     1  UNL1        0.0410
      8 C          63.2684   87.3445   12.6584 C.3     1  UNL1        0.0951
      9 N          62.7363   83.0841   11.4483 N.3     1  UNL1       -0.3148
     10 C          62.6667   84.4849   11.9800 C.3     1  UNL1        0.1329
     11 H          62.2431   83.0339   10.5568 H       1  UNL1        0.1192
     12 H          62.3010   82.4456   12.1141 H       1  UNL1        0.1192
     13 C          61.9443   85.5464   11.2046 C.3     1  UNL1        0.0512
     14 C          61.8526   85.4523    9.7103 C.ar    1  UNL1       -0.0203
     15 C          62.9872   84.8643    8.9248 C.ar    1  UNL1       -0.0042
     16 C          62.8956   84.7702    7.4306 C.ar    1  UNL1       -0.0003
     17 C          61.6693   85.2641    6.7219 C.ar    1  UNL1       -0.0000
     18 C          60.5347   85.8521    7.5073 C.ar    1  UNL1       -0.0003
     19 C          60.6264   85.9463    9.0016 C.ar    1  UNL1       -0.0042
     20 N          64.5229   90.5436   14.6441 N.pl3   1  UNL1       -0.3369
     21 H          64.1871   90.9313   15.4844 H       1  UNL1        0.1465
     22 C          65.3356   91.3826   13.7029 C.2     1  UNL1        0.0262
     23 C          66.7861   91.6374   13.9871 C.2     1  UNL1        0.0118
     24 C          67.5987   92.4765   13.0459 C.2     1  UNL1        0.0216
     25 C          66.9606   93.0606   11.8205 C.2     1  UNL1        0.1008
     26 N          67.5047   93.9209   10.7187 N.2     1  UNL1       -0.1482
     27 N          66.3904   94.1977    9.7536 N.2     1  UNL1       -0.1467
     28 C          65.1576   93.5085   10.2589 C.2     1  UNL1        0.1198
     29 C          65.5100   92.8058   11.5363 C.2     1  UNL1        0.0238
     30 C          64.6975   91.9668   12.4775 C.3     1  UNL1        0.0703
@<TRIPOS>BOND
     1    10     9    1
     2    10    13    1
     3    13    14    1
     4    14    15   ar
     5    15    16   ar
     6    16    17   ar
     7    17    18   ar
     8    18    19   ar
     9    10     1    1
    10     1     2    2
    11     1     3   am
    12     3     4    1
    13     4     5    1
    14     5     6    1
    15     6    20    1
    16    20    22    1
    17    22    23    2
    18    23    24    1
    19    24    25    2
    20    25    26    1
    21    26    27    2
    22    27    28    1
    23    28    29    2
    24    29    30    1
    25     6     7    1
    26     7     8    1
    27    19    14   ar
    28     8     3    1
    29    30    22    1
    30    29    25    1
    31     9    11    1
    32     9    12    1
    33    20    21    1
@<TRIPOS>MOLECULE
*****
 30 33 0 0 0
SMALL
GASTEIGER

@<TRIPOS>ATOM
      1 C          60.9596   93.0257    2.6910 C.2     1  UNL1        0.2400
      2 O          62.4387   92.9579    2.4511 O.2     1  UNL1       -0.2734
      3 N          60.3237   92.1306    3.7129 N.am    1  UNL1       -0.2783
      4 C          61.1669   91.1677    4.4950 C.3     1  UNL1        0.0951
      5 C          60.5310   90.2726    5.5171 C.3     1  UNL1        0.0410
      6 C          59.0518   90.3404    5.7569 C.3     1  UNL1        0.0722
      7 C          58.2086   91.3034    4.9747 C.3     1  UNL1        0.0410
      8 C          58.8445   92.1985    3.9528 C.3     1  UNL1        0.0951
      9 N          60.0388   95.4275    2.3256 N.3     1  UNL1       -0.3148
     10 C          60.1163   93.9886    1.9089 C.3     1  UNL1        0.1329
     11 H          59.4256   95.9339    1.6868 H       1  UNL1        0.1192
     12 H          60.9714   95.8396    2.3000 H       1  UNL1        0.1192
     13 C          59.3507   93.5127    0.7100 C.3     1  UNL1        0.0512
     14 C          59.9579   93.6166   -0.6576 C.ar    1  UNL1       -0.0203
     15 C          61.4261   93.3741   -0.8467 C.ar    1  UNL1       -0.0042
     16 C          62.0334   93.4780   -2.2143 C.ar    1  UNL1       -0.0003
     17 C          61.1726   93.8245   -3.3928 C.ar    1  UNL1       -0.0000
     18 C          59.7044   94.0670   -3.2037 C.ar    1  UNL1       -0.0003
     19 C          59.0971   93.9631   -1.8361 C.ar    1  UNL1       -0.0042
     20 N          58.4160   89.4454    6.7789 N.pl3   1  UNL1       -0.3369
     21 H          57.4358   89.4169    6.8667 H       1  UNL1        0.1465
     22 C          59.2736   88.5935    7.6672 C.2     1  UNL1        0.0262
     23 C          59.3847   87.1195    7.4130 C.2     1  UNL1        0.0118
     24 C          60.2424   86.2677    8.3013 C.2     1  UNL1        0.0216
     25 C          60.9888   86.8901    9.4438 C.2     1  UNL1        0.1008
     26 N          61.9039   86.3087   10.4803 N.2     1  UNL1       -0.1482
     27 N          62.3583   87.4234   11.3752 N.2     1  UNL1       -0.1467
     28 C          61.7241   88.6938   10.8917 C.2     1  UNL1        0.1198
     29 C          60.8776   88.3643    9.6980 C.2     1  UNL1        0.0238
     30 C          60.0200   89.2160    8.8097 C.3     1  UNL1        0.0703
@<TRIPOS>BOND
     1    10     9    1
     2    10    13    1
     3    13    14    1
     4    14    15   ar
     5    15    16   ar
     6    16    17   ar
     7    17    18   ar
     8    18    19   ar
     9    10     1    1
    10     1     2    2
    11     1     3   am
    12     3     4    1
    13     4     5    1
    14     5     6    1
    15     6    20    1
    16    20    22    1
    17    22    23    2
    18    23    24    1
    19    24    25    2
    20    25    26    1
    21    26    27    2
    22    27    28    1
    23    28    29    2
    24    29    30    1
    25     6     7    1
    26     7     8    1
    27    19    14   ar
    28     8     3    1
    29    30    22    1
    30    29    25    1
    31     9    11    1
    32     9    12    1
    33    20    21    1
