@<TRIPOS>MOLECULE
*****
 25 28 0 0 0
SMALL
GASTEIGER

@<TRIPOS>ATOM
      1 C          62.6896   83.4752   12.5331 C.2     1  UNL1        0.1203
      2 C          63.6407   83.8175   13.6415 C.2     1  UNL1        0.0299
      3 C          64.0189   85.2475   13.8902 C.2     1  UNL1       -0.0018
      4 C          64.9699   85.5899   14.9985 C.3     1  UNL1        0.0327
      5 C          63.4461   86.3353   13.0306 C.ar    1  UNL1        0.0754
      6 N          63.8244   87.7654   13.2795 N.ar    1  UNL1       -0.2257
      7 C          63.2516   88.8530   12.4199 C.ar    1  UNL1        0.1846
      8 N          63.4387   90.3413   12.4271 N.2     1  UNL1       -0.1288
      9 N          62.6033   90.9187   11.3232 N.2     1  UNL1       -0.1508
     10 C          61.8999   89.7874   10.6338 C.2     1  UNL1        0.0837
     11 C          60.9607   89.9110    9.4707 C.3     1  UNL1        0.0541
     12 C          62.3006   88.5107   11.3116 C.ar    1  UNL1        0.0512
     13 C          61.9223   87.0806   11.0628 C.ar    1  UNL1        0.0111
     14 C          62.4951   85.9930   11.9224 C.ar    1  UNL1        0.0015
     15 C          62.1168   84.5629   11.6736 C.3     1  UNL1        0.0914
     16 C          60.9713   86.7383    9.9545 C.3     1  UNL1        0.1623
     17 O          59.5252   87.1226   10.0616 O.3     1  UNL1       -0.3750
     18 H          59.3741   87.5817   10.9025 H       1  UNL1        0.2113
     19 C          61.4663   86.0117    8.7392 C.ar    1  UNL1        0.0585
     20 C          62.8695   85.5350    8.5075 C.ar    1  UNL1        0.1043
     21 N          62.9154   84.8629    7.1674 N.ar    1  UNL1       -0.2350
     22 C          61.5405   84.9241    6.5707 C.ar    1  UNL1        0.1343
     23 S          60.6449   85.6341    7.5423 S.2     1  UNL1       -0.0661
     24 C          61.9207   81.1620   13.4323 C.3     1  UNL1        0.2520
     25 O          62.3114   82.0451   12.2843 O.2     1  UNL1       -0.4754
@<TRIPOS>BOND
     1    24    25    1
     2    25     1    1
     3     1     2    2
     4     2     3    1
     5     3     4    1
     6     3     5    2
     7     5     6   ar
     8     6     7   ar
     9     7     8    1
    10     8     9    2
    11     9    10    1
    12    10    11    1
    13    10    12    2
    14    12    13   ar
    15    13    16    1
    16    16    17    1
    17    16    19    1
    18    19    20   ar
    19    20    21   ar
    20    21    22   ar
    21    22    23   ar
    22    13    14   ar
    23    14    15    1
    24    15     1    1
    25    14     5   ar
    26    12     7   ar
    27    23    19   ar
    28    17    18    1
@<TRIPOS>MOLECULE
*****
 25 28 0 0 0
SMALL
GASTEIGER

@<TRIPOS>ATOM
      1 C          63.0331   89.0979   11.9459 C.2     1  UNL1        0.1203
      2 C          62.3228   88.7655   10.6671 C.2     1  UNL1        0.0299
      3 C          62.0483   87.3343   10.3118 C.2     1  UNL1       -0.0018
      4 C          61.3381   87.0019    9.0331 C.3     1  UNL1        0.0327
      5 C          62.4840   86.2354   11.2353 C.ar    1  UNL1        0.0754
      6 N          62.2094   84.8042   10.8800 N.ar    1  UNL1       -0.2257
      7 C          62.6451   83.7053   11.8034 C.ar    1  UNL1        0.1846
      8 N          62.5141   82.2134   11.7202 N.2     1  UNL1       -0.1288
      9 N          63.1434   81.6237   12.9475 N.2     1  UNL1       -0.1508
     10 C          63.6633   82.7512   13.7892 C.2     1  UNL1        0.0837
     11 C          64.3675   82.6159   15.1067 C.3     1  UNL1        0.0541
     12 C          63.3554   84.0377   13.0821 C.ar    1  UNL1        0.0512
     13 C          63.6299   85.4690   13.4374 C.ar    1  UNL1        0.0111
     14 C          63.1942   86.5678   12.5140 C.ar    1  UNL1        0.0015
     15 C          63.4688   87.9990   12.8693 C.3     1  UNL1        0.0914
     16 C          64.3401   85.8014   14.7161 C.3     1  UNL1        0.1623
     17 O          65.8350   85.7021   14.7914 O.3     1  UNL1       -0.3750
     18 H          66.1834   85.4118   13.9340 H       1  UNL1        0.2113
     19 C          63.5555   86.2330   15.9195 C.ar    1  UNL1        0.0585
     20 C          62.7019   85.3485   16.7791 C.ar    1  UNL1        0.1043
     21 N          62.1056   86.1937   17.8654 N.ar    1  UNL1       -0.2350
     22 C          62.5907   87.6006   17.6771 C.ar    1  UNL1        0.1343
     23 S          63.4868   87.6248   16.4744 S.2     1  UNL1       -0.0661
     24 C          63.8728   90.8725   13.6476 C.3     1  UNL1        0.2520
     25 O          63.3076   90.5291   12.3012 O.2     1  UNL1       -0.4754
@<TRIPOS>BOND
     1    24    25    1
     2    25     1    1
     3     1     2    2
     4     2     3    1
     5     3     4    1
     6     3     5    2
     7     5     6   ar
     8     6     7   ar
     9     7     8    1
    10     8     9    2
    11     9    10    1
    12    10    11    1
    13    10    12    2
    14    12    13   ar
    15    13    16    1
    16    16    17    1
    17    16    19    1
    18    19    20   ar
    19    20    21   ar
    20    21    22   ar
    21    22    23   ar
    22    13    14   ar
    23    14    15    1
    24    15     1    1
    25    14     5   ar
    26    12     7   ar
    27    23    19   ar
    28    17    18    1
@<TRIPOS>MOLECULE
*****
 25 28 0 0 0
SMALL
GASTEIGER

@<TRIPOS>ATOM
      1 C          63.9063   85.7545   13.6533 C.2     1  UNL1        0.1203
      2 C          63.9651   84.4346   12.9431 C.2     1  UNL1        0.0299
      3 C          63.2789   84.2635   11.6203 C.2     1  UNL1       -0.0018
      4 C          63.3377   82.9436   10.9100 C.3     1  UNL1        0.0327
      5 C          62.5339   85.4124   11.0076 C.ar    1  UNL1        0.0754
      6 N          61.8477   85.2412    9.6848 N.ar    1  UNL1       -0.2257
      7 C          61.1028   86.3901    9.0722 C.ar    1  UNL1        0.1846
      8 N          60.3351   86.5190    7.7900 N.2     1  UNL1       -0.1288
      9 N          59.8019   87.9186    7.7078 N.2     1  UNL1       -0.1508
     10 C          60.2400   88.6547    8.9392 C.2     1  UNL1        0.0837
     11 C          59.9288   90.0844    9.2694 C.3     1  UNL1        0.0541
     12 C          61.0440   87.7099    9.7825 C.ar    1  UNL1        0.0512
     13 C          61.7302   87.8810   11.1053 C.ar    1  UNL1        0.0111
     14 C          62.4752   86.7322   11.7178 C.ar    1  UNL1        0.0015
     15 C          63.1614   86.9033   13.0407 C.3     1  UNL1        0.0914
     16 C          61.6714   89.2009   11.8156 C.3     1  UNL1        0.1623
     17 O          60.5138   89.5174   12.7156 O.3     1  UNL1       -0.3750
     18 H          59.8983   88.7679   12.7263 H       1  UNL1        0.2113
     19 C          62.7702   90.2042   11.6259 C.ar    1  UNL1        0.0585
     20 C          63.1281   90.8871   10.3392 C.ar    1  UNL1        0.1043
     21 N          64.2830   91.8058   10.6076 N.ar    1  UNL1       -0.2350
     22 C          64.6390   91.6907   12.0603 C.ar    1  UNL1        0.1343
     23 S          63.7039   90.7009   12.6895 S.2     1  UNL1       -0.0661
     24 C          63.8406   85.6731   16.2493 C.3     1  UNL1        0.2520
     25 O          64.5925   85.9256   14.9761 O.2     1  UNL1       -0.4754
@<TRIPOS>BOND
     1    24    25    1
     2    25     1    1
     3     1     2    2
     4     2     3    1
     5     3     4    1
     6     3     5    2
     7     5     6   ar
     8     6     7   ar
     9     7     8    1
    10     8     9    2
    11     9    10    1
    12    10    11    1
    13    10    12    2
    14    12    13   ar
    15    13    16    1
    16    16    17    1
    17    16    19    1
    18    19    20   ar
    19    20    21   ar
    20    21    22   ar
    21    22    23   ar
    22    13    14   ar
    23    14    15    1
    24    15     1    1
    25    14     5   ar
    26    12     7   ar
    27    23    19   ar
    28    17    18    1
@<TRIPOS>MOLECULE
*****
 25 28 0 0 0
SMALL
GASTEIGER

@<TRIPOS>ATOM
      1 C          64.3205   90.8667   13.8333 C.2     1  UNL1        0.1203
      2 C          63.7135   91.3416   12.5463 C.2     1  UNL1        0.0299
      3 C          63.1119   90.3535   11.5914 C.2     1  UNL1       -0.0018
      4 C          62.5049   90.8282   10.3045 C.3     1  UNL1        0.0327
      5 C          63.1173   88.8906   11.9235 C.ar    1  UNL1        0.0754
      6 N          62.5157   87.9026   10.9685 N.ar    1  UNL1       -0.2257
      7 C          62.5211   86.4398   11.3006 C.ar    1  UNL1        0.1846
      8 N          62.0062   85.2408   10.5609 N.2     1  UNL1       -0.1288
      9 N          62.2949   84.0251   11.3906 N.2     1  UNL1       -0.1508
     10 C          62.9883   84.4727   12.6432 C.2     1  UNL1        0.0837
     11 C          63.4592   83.5839   13.7560 C.3     1  UNL1        0.0541
     12 C          63.1281   85.9651   12.5875 C.ar    1  UNL1        0.0512
     13 C          63.7297   86.9532   13.5424 C.ar    1  UNL1        0.0111
     14 C          63.7243   88.4159   13.2104 C.ar    1  UNL1        0.0015
     15 C          64.3259   89.4040   14.1653 C.3     1  UNL1        0.0914
     16 C          64.3367   86.4785   14.8294 C.3     1  UNL1        0.1623
     17 O          65.7381   85.9436   14.8453 O.3     1  UNL1       -0.3750
     18 H          66.1061   85.9742   13.9483 H       1  UNL1        0.2113
     19 C          63.5424   86.5386   16.1004 C.ar    1  UNL1        0.0585
     20 C          62.8332   85.3887   16.7520 C.ar    1  UNL1        0.1043
     21 N          62.1703   85.8986   17.9972 N.ar    1  UNL1       -0.2350
     22 C          62.4699   87.3637   18.1152 C.ar    1  UNL1        0.1343
     23 S          63.3179   87.7591   16.9428 S.2     1  UNL1       -0.0661
     24 C          66.3501   92.2836   14.6230 C.3     1  UNL1        0.2520
     25 O          64.9221   91.8548   14.7882 O.2     1  UNL1       -0.4754
@<TRIPOS>BOND
     1    24    25    1
     2    25     1    1
     3     1     2    2
     4     2     3    1
     5     3     4    1
     6     3     5    2
     7     5     6   ar
     8     6     7   ar
     9     7     8    1
    10     8     9    2
    11     9    10    1
    12    10    11    1
    13    10    12    2
    14    12    13   ar
    15    13    16    1
    16    16    17    1
    17    16    19    1
    18    19    20   ar
    19    20    21   ar
    20    21    22   ar
    21    22    23   ar
    22    13    14   ar
    23    14    15    1
    24    15     1    1
    25    14     5   ar
    26    12     7   ar
    27    23    19   ar
    28    17    18    1
@<TRIPOS>MOLECULE
*****
 25 28 0 0 0
SMALL
GASTEIGER

@<TRIPOS>ATOM
      1 C          60.9797   86.0064    8.4760 C.2     1  UNL1        0.1203
      2 C          60.6605   87.4617    8.6503 C.2     1  UNL1        0.0299
      3 C          61.1682   88.2021    9.8520 C.2     1  UNL1       -0.0018
      4 C          60.8490   89.6573   10.0264 C.3     1  UNL1        0.0327
      5 C          61.9951   87.4872   10.8794 C.ar    1  UNL1        0.0754
      6 N          62.5027   88.2278   12.0811 N.ar    1  UNL1       -0.2257
      7 C          63.3296   87.5129   13.1084 C.ar    1  UNL1        0.1846
      8 N          63.9637   87.9768   14.3861 N.2     1  UNL1       -0.1288
      9 N          64.6748   86.8081   15.0015 N.2     1  UNL1       -0.1508
     10 C          64.4802   85.6221   14.1040 C.2     1  UNL1        0.0837
     11 C          65.0218   84.2427   14.3359 C.3     1  UNL1        0.0541
     12 C          63.6487   86.0577   12.9340 C.ar    1  UNL1        0.0512
     13 C          63.1411   85.3173   11.7323 C.ar    1  UNL1        0.0111
     14 C          62.3142   86.0321   10.7050 C.ar    1  UNL1        0.0015
     15 C          61.8066   85.2916    9.5033 C.3     1  UNL1        0.0914
     16 C          63.4602   83.8620   11.5579 C.3     1  UNL1        0.1623
     17 O          64.4246   83.4279   10.4940 O.3     1  UNL1       -0.3750
     18 H          64.7471   84.2060   10.0130 H       1  UNL1        0.2113
     19 C          62.8152   82.8409   12.4474 C.ar    1  UNL1        0.0585
     20 C          62.0426   83.1259   13.7011 C.ar    1  UNL1        0.1043
     21 N          61.5794   81.8167   14.2679 N.ar    1  UNL1       -0.2350
     22 C          62.0656   80.7224   13.3643 C.ar    1  UNL1        0.1343
     23 S          62.8294   81.3555   12.2392 S.2     1  UNL1       -0.0661
     24 C          61.4394   84.6159    6.3300 C.3     1  UNL1        0.2520
     25 O          60.4720   85.2659    7.2744 O.2     1  UNL1       -0.4754
@<TRIPOS>BOND
     1    24    25    1
     2    25     1    1
     3     1     2    2
     4     2     3    1
     5     3     4    1
     6     3     5    2
     7     5     6   ar
     8     6     7   ar
     9     7     8    1
    10     8     9    2
    11     9    10    1
    12    10    11    1
    13    10    12    2
    14    12    13   ar
    15    13    16    1
    16    16    17    1
    17    16    19    1
    18    19    20   ar
    19    20    21   ar
    20    21    22   ar
    21    22    23   ar
    22    13    14   ar
    23    14    15    1
    24    15     1    1
    25    14     5   ar
    26    12     7   ar
    27    23    19   ar
    28    17    18    1
@<TRIPOS>MOLECULE
*****
 25 28 0 0 0
SMALL
GASTEIGER

@<TRIPOS>ATOM
      1 C          59.8289   92.3269    3.8827 C.2     1  UNL1        0.1203
      2 C          61.1238   91.6010    4.0981 C.2     1  UNL1        0.0299
      3 C          62.2343   91.7357    3.0987 C.2     1  UNL1       -0.0018
      4 C          63.5292   91.0099    3.3140 C.3     1  UNL1        0.0327
      5 C          62.0498   92.5963    1.8840 C.ar    1  UNL1        0.0754
      6 N          63.1604   92.7309    0.8846 N.ar    1  UNL1       -0.2257
      7 C          62.9759   93.5915   -0.3301 C.ar    1  UNL1        0.1846
      8 N          63.8846   93.9136   -1.4792 N.2     1  UNL1       -0.1288
      9 N          63.1512   94.8386   -2.4048 N.2     1  UNL1       -0.1508
     10 C          61.7894   95.0881   -1.8276 C.2     1  UNL1        0.0837
     11 C          60.7231   95.9560   -2.4275 C.3     1  UNL1        0.0541
     12 C          61.6810   94.3173   -0.5454 C.ar    1  UNL1        0.0512
     13 C          60.5706   94.1827    0.4540 C.ar    1  UNL1        0.0111
     14 C          60.7550   93.3221    1.6686 C.ar    1  UNL1        0.0015
     15 C          59.6445   93.1875    2.6680 C.3     1  UNL1        0.0914
     16 C          59.2757   94.9085    0.2387 C.3     1  UNL1        0.1623
     17 O          59.1232   96.3254    0.7071 O.3     1  UNL1       -0.3750
     18 H          59.9483   96.6185    1.1245 H       1  UNL1        0.2113
     19 C          58.1332   94.2176   -0.4450 C.ar    1  UNL1        0.0585
     20 C          57.9094   92.7357   -0.5076 C.ar    1  UNL1        0.1043
     21 N          56.6519   92.4894   -1.2874 N.ar    1  UNL1       -0.2350
     22 C          56.0985   93.8192   -1.7067 C.ar    1  UNL1        0.1343
     23 S          57.0142   94.8871   -1.1860 S.2     1  UNL1       -0.0661
     24 C          58.4785   90.8779    5.5640 C.3     1  UNL1        0.2520
     25 O          58.7185   92.1923    4.8820 O.2     1  UNL1       -0.4754
@<TRIPOS>BOND
     1    24    25    1
     2    25     1    1
     3     1     2    2
     4     2     3    1
     5     3     4    1
     6     3     5    2
     7     5     6   ar
     8     6     7   ar
     9     7     8    1
    10     8     9    2
    11     9    10    1
    12    10    11    1
    13    10    12    2
    14    12    13   ar
    15    13    16    1
    16    16    17    1
    17    16    19    1
    18    19    20   ar
    19    20    21   ar
    20    21    22   ar
    21    22    23   ar
    22    13    14   ar
    23    14    15    1
    24    15     1    1
    25    14     5   ar
    26    12     7   ar
    27    23    19   ar
    28    17    18    1
@<TRIPOS>MOLECULE
*****
 25 28 0 0 0
SMALL
GASTEIGER

@<TRIPOS>ATOM
      1 C          62.9514   82.6963   12.0470 C.2     1  UNL1        0.1203
      2 C          63.3417   82.8388   13.4883 C.2     1  UNL1        0.0299
      3 C          63.5212   84.2030   14.0854 C.2     1  UNL1       -0.0018
      4 C          63.9115   84.3455   15.5267 C.3     1  UNL1        0.0327
      5 C          63.3104   85.4249   13.2411 C.ar    1  UNL1        0.0754
      6 N          63.4900   86.7892   13.8382 N.ar    1  UNL1       -0.2257
      7 C          63.2792   88.0110   12.9939 C.ar    1  UNL1        0.1846
      8 N          63.3827   89.4750   13.3036 N.2     1  UNL1       -0.1288
      9 N          63.0563   90.2374   12.0537 N.2     1  UNL1       -0.1508
     10 C          62.7512   89.2445   10.9715 C.2     1  UNL1        0.0837
     11 C          62.3744   89.5704    9.5567 C.3     1  UNL1        0.0541
     12 C          62.8889   87.8685   11.5526 C.ar    1  UNL1        0.0512
     13 C          62.7094   86.5042   10.9556 C.ar    1  UNL1        0.0111
     14 C          62.9202   85.2824   11.7998 C.ar    1  UNL1        0.0015
     15 C          62.7407   83.9181   11.2027 C.3     1  UNL1        0.0914
     16 C          62.3192   86.3617    9.5143 C.3     1  UNL1        0.1623
     17 O          63.3407   85.9436    8.4984 O.3     1  UNL1       -0.3750
     18 H          64.1952   85.8067    8.9366 H       1  UNL1        0.2113
     19 C          60.9074   86.6373    9.0887 C.ar    1  UNL1        0.0585
     20 C          59.8804   87.3937    9.8780 C.ar    1  UNL1        0.1043
     21 N          58.6131   87.4287    9.0764 N.ar    1  UNL1       -0.2350
     22 C          58.8569   86.6939    7.7915 C.ar    1  UNL1        0.1343
     23 S          60.2749   86.2048    7.7993 S.2     1  UNL1       -0.0661
     24 C          62.6775   80.1296   12.3417 C.3     1  UNL1        0.2520
     25 O          62.7719   81.3321   11.4499 O.2     1  UNL1       -0.4754
@<TRIPOS>BOND
     1    24    25    1
     2    25     1    1
     3     1     2    2
     4     2     3    1
     5     3     4    1
     6     3     5    2
     7     5     6   ar
     8     6     7   ar
     9     7     8    1
    10     8     9    2
    11     9    10    1
    12    10    11    1
    13    10    12    2
    14    12    13   ar
    15    13    16    1
    16    16    17    1
    17    16    19    1
    18    19    20   ar
    19    20    21   ar
    20    21    22   ar
    21    22    23   ar
    22    13    14   ar
    23    14    15    1
    24    15     1    1
    25    14     5   ar
    26    12     7   ar
    27    23    19   ar
    28    17    18    1
@<TRIPOS>MOLECULE
*****
 25 28 0 0 0
SMALL
GASTEIGER

@<TRIPOS>ATOM
      1 C          62.7577   83.8742   11.9612 C.2     1  UNL1        0.1203
      2 C          62.0985   84.2875   10.6787 C.2     1  UNL1        0.0299
      3 C          61.9766   85.7420   10.3329 C.2     1  UNL1       -0.0018
      4 C          61.3175   86.1554    9.0505 C.3     1  UNL1        0.0327
      5 C          62.5139   86.7832   11.2697 C.ar    1  UNL1        0.0754
      6 N          62.3919   88.2378   10.9239 N.ar    1  UNL1       -0.2257
      7 C          62.9291   89.2789   11.8606 C.ar    1  UNL1        0.1846
      8 N          62.9534   90.7770   11.7887 N.2     1  UNL1       -0.1288
      9 N          63.6276   91.2895   13.0268 N.2     1  UNL1       -0.1508
     10 C          64.0200   90.1081   13.8638 C.2     1  UNL1        0.0837
     11 C          64.7209   90.1603   15.1889 C.3     1  UNL1        0.0541
     12 C          63.5883   88.8655   13.1430 C.ar    1  UNL1        0.0512
     13 C          63.7102   87.4110   13.4888 C.ar    1  UNL1        0.0111
     14 C          63.1730   86.3699   12.5521 C.ar    1  UNL1        0.0015
     15 C          63.2949   84.9153   12.8979 C.3     1  UNL1        0.0914
     16 C          64.3693   86.9976   14.7712 C.3     1  UNL1        0.1623
     17 O          65.8541   86.7891   14.8181 O.3     1  UNL1       -0.3750
     18 H          66.2327   86.9617   13.9419 H       1  UNL1        0.2113
     19 C          63.5438   86.7928   16.0067 C.ar    1  UNL1        0.0585
     20 C          62.9447   85.4951   16.4617 C.ar    1  UNL1        0.1043
     21 N          62.2031   85.7499   17.7403 N.ar    1  UNL1       -0.2350
     22 C          62.3438   87.2052   18.0757 C.ar    1  UNL1        0.1343
     23 S          63.1724   87.8497   17.0042 S.2     1  UNL1       -0.0661
     24 C          62.1500   81.8676   13.4957 C.3     1  UNL1        0.2520
     25 O          62.8796   82.4197   12.3069 O.2     1  UNL1       -0.4754
@<TRIPOS>BOND
     1    24    25    1
     2    25     1    1
     3     1     2    2
     4     2     3    1
     5     3     4    1
     6     3     5    2
     7     5     6   ar
     8     6     7   ar
     9     7     8    1
    10     8     9    2
    11     9    10    1
    12    10    11    1
    13    10    12    2
    14    12    13   ar
    15    13    16    1
    16    16    17    1
    17    16    19    1
    18    19    20   ar
    19    20    21   ar
    20    21    22   ar
    21    22    23   ar
    22    13    14   ar
    23    14    15    1
    24    15     1    1
    25    14     5   ar
    26    12     7   ar
    27    23    19   ar
    28    17    18    1
@<TRIPOS>MOLECULE
*****
 25 28 0 0 0
SMALL
GASTEIGER

@<TRIPOS>ATOM
      1 C          59.9942   92.9558    2.3756 C.2     1  UNL1        0.1203
      2 C          61.4371   92.6444    2.6423 C.2     1  UNL1        0.0299
      3 C          62.4585   92.8389    1.5612 C.2     1  UNL1       -0.0018
      4 C          63.9014   92.5276    1.8278 C.3     1  UNL1        0.0327
      5 C          62.0370   93.3448    0.2133 C.ar    1  UNL1        0.0754
      6 N          63.0585   93.5393   -0.8678 N.ar    1  UNL1       -0.2257
      7 C          62.6370   94.0451   -2.2156 C.ar    1  UNL1        0.1846
      8 N          63.4124   94.3335   -3.4668 N.2     1  UNL1       -0.1288
      9 N          62.4486   94.8230   -4.5068 N.2     1  UNL1       -0.1508
     10 C          61.0777   94.8373   -3.8983 C.2     1  UNL1        0.0837
     11 C          59.8125   95.2583   -4.5852 C.3     1  UNL1        0.0541
     12 C          61.1941   94.3565   -2.4822 C.ar    1  UNL1        0.0512
     13 C          60.1727   94.1620   -1.4010 C.ar    1  UNL1        0.0111
     14 C          60.5942   93.6562   -0.0533 C.ar    1  UNL1        0.0015
     15 C          59.5727   93.4617    1.0278 C.3     1  UNL1        0.0914
     16 C          58.7298   94.4734   -1.6677 C.3     1  UNL1        0.1623
     17 O          58.2306   95.8822   -1.5403 O.3     1  UNL1       -0.3750
     18 H          58.9630   96.4625   -1.2804 H       1  UNL1        0.2113
     19 C          57.7861   93.3760   -2.0616 C.ar    1  UNL1        0.0585
     20 C          56.6392   92.8630   -1.2422 C.ar    1  UNL1        0.1043
     21 N          55.9679   91.7689   -2.0182 N.ar    1  UNL1       -0.2350
     22 C          56.6999   91.6057   -3.3173 C.ar    1  UNL1        0.1343
     23 S          57.8236   92.5990   -3.3440 S.2     1  UNL1       -0.0661
     24 C          59.3018   91.9249    4.6577 C.3     1  UNL1        0.2520
     25 O          58.9727   92.7613    3.4567 O.2     1  UNL1       -0.4754
@<TRIPOS>BOND
     1    24    25    1
     2    25     1    1
     3     1     2    2
     4     2     3    1
     5     3     4    1
     6     3     5    2
     7     5     6   ar
     8     6     7   ar
     9     7     8    1
    10     8     9    2
    11     9    10    1
    12    10    11    1
    13    10    12    2
    14    12    13   ar
    15    13    16    1
    16    16    17    1
    17    16    19    1
    18    19    20   ar
    19    20    21   ar
    20    21    22   ar
    21    22    23   ar
    22    13    14   ar
    23    14    15    1
    24    15     1    1
    25    14     5   ar
    26    12     7   ar
    27    23    19   ar
    28    17    18    1
