@<TRIPOS>MOLECULE
*****
 28 30 0 0 0
SMALL
GASTEIGER

@<TRIPOS>ATOM
      1 N          64.3819   89.6584   14.2062 N.3     1  UNL1       -0.1466
      2 C          63.9409   89.5346   15.6346 C.3     1  UNL1        0.1222
      3 C          63.5532   88.1061   15.8779 C.ar    1  UNL1       -0.0071
      4 C          63.0428   87.3985   17.0980 C.ar    1  UNL1       -0.0031
      5 C          62.7338   85.9318   17.0401 C.ar    1  UNL1       -0.0003
      6 C          62.9352   85.1728   15.7621 C.ar    1  UNL1       -0.0001
      7 C          63.4456   85.8804   14.5420 C.ar    1  UNL1       -0.0031
      8 C          63.7546   87.3471   14.5999 C.ar    1  UNL1       -0.0071
      9 C          64.2668   88.3065   13.5668 C.3     1  UNL1        0.1222
     10 S          64.8550   90.9138   13.5352 S.O2    1  UNL1        0.0639
     11 O          63.8109   90.7391   12.4724 O.2     1  UNL1       -0.1528
     12 O          65.8991   91.0884   14.5980 O.2     1  UNL1       -0.1528
     13 C          66.2743   94.6798   11.5221 C.ar    1  UNL1        0.1388
     14 C          66.5623   94.4525   12.9765 C.ar    1  UNL1        0.0383
     15 C          66.0892   93.1972   13.6475 C.ar    1  UNL1        0.0230
     16 C          65.3281   92.1691   12.8642 C.ar    1  UNL1        0.1224
     17 C          65.0400   92.3964   11.4098 C.ar    1  UNL1        0.0230
     18 C          65.5131   93.6518   10.7388 C.ar    1  UNL1        0.0383
     19 C          67.3384   95.8724    9.4739 C.3     1  UNL1        0.2525
     20 O          66.7473   95.9352   10.8511 O.3     1  UNL1       -0.4714
     21 C          62.6262   83.7061   15.7042 C.2     1  UNL1        0.0047
     22 C          62.5104   83.0157   14.3776 C.2     1  UNL1        0.0598
     23 C          62.2014   81.5490   14.3197 C.2     1  UNL1        0.2679
     24 O          63.3115   80.5444   14.4126 O.2     1  UNL1       -0.2681
     25 N          60.7824   81.0869   14.1691 N.am    1  UNL1       -0.1934
     26 O          60.4734   79.6202   14.1112 O.3     1  UNL1       -0.2949
     27 H          60.0538   81.7462   14.1081 H       1  UNL1        0.1825
     28 H          61.2971   79.1132   14.1845 H       1  UNL1        0.2414
@<TRIPOS>BOND
     1    19    20    1
     2    20    13    1
     3    13    14   ar
     4    14    15   ar
     5    15    16   ar
     6    16    10    1
     7    10    11    2
     8    10    12    2
     9    10     1    1
    10     1     2    1
    11     2     3    1
    12     3     4   ar
    13     4     5   ar
    14     5     6   ar
    15     6    21    1
    16    21    22    2
    17    22    23    1
    18    23    24    2
    19    23    25   am
    20    25    26    1
    21     6     7   ar
    22     7     8   ar
    23     8     9    1
    24    16    17   ar
    25    17    18   ar
    26    18    13   ar
    27     9     1    1
    28     8     3   ar
    29    25    27    1
    30    26    28    1
@<TRIPOS>MOLECULE
*****
 28 30 0 0 0
SMALL
GASTEIGER

@<TRIPOS>ATOM
      1 N          64.0143   88.0648   13.7370 N.3     1  UNL1       -0.1466
      2 C          64.7243   88.8247   14.8179 C.3     1  UNL1        0.1222
      3 C          65.0283   90.1978   14.2963 C.ar    1  UNL1       -0.0071
      4 C          65.7131   91.3788   14.9178 C.ar    1  UNL1       -0.0031
      5 C          65.8756   92.6485   14.1360 C.ar    1  UNL1       -0.0003
      6 C          65.3535   92.7373   12.7327 C.ar    1  UNL1       -0.0001
      7 C          64.6687   91.5564   12.1111 C.ar    1  UNL1       -0.0031
      8 C          64.5061   90.2866   12.8929 C.ar    1  UNL1       -0.0071
      9 C          63.8794   88.9684   12.5473 C.3     1  UNL1        0.1222
     10 S          63.5251   86.6499   13.8295 S.O2    1  UNL1        0.0639
     11 O          63.9790   86.5863   15.2577 O.2     1  UNL1       -0.1528
     12 O          63.0711   86.7134   12.4012 O.2     1  UNL1       -0.1528
     13 C          62.0573   82.4050   14.1070 C.ar    1  UNL1        0.1388
     14 C          62.3557   83.0093   12.7670 C.ar    1  UNL1        0.0383
     15 C          62.8449   84.4243   12.6745 C.ar    1  UNL1        0.0230
     16 C          63.0358   85.2349   13.9220 C.ar    1  UNL1        0.1224
     17 C          62.7375   84.6306   15.2620 C.ar    1  UNL1        0.0230
     18 C          62.2482   83.2157   15.3546 C.ar    1  UNL1        0.0383
     19 C          62.2386   79.9110   13.4021 C.3     1  UNL1        0.2525
     20 O          61.5681   80.9901   14.1996 O.3     1  UNL1       -0.4714
     21 C          65.5161   94.0072   11.9508 C.2     1  UNL1        0.0047
     22 C          66.4034   94.0351   10.7418 C.2     1  UNL1        0.0598
     23 C          66.5660   95.3050    9.9600 C.2     1  UNL1        0.2679
     24 O          65.5143   96.3719   10.0351 O.2     1  UNL1       -0.2681
     25 N          67.7803   95.5079    9.1031 N.am    1  UNL1       -0.1934
     26 O          67.9429   96.7776    8.3214 O.3     1  UNL1       -0.2949
     27 H          68.4706   94.8076    9.0538 H       1  UNL1        0.1825
     28 H          67.1803   97.3555    8.4810 H       1  UNL1        0.2414
@<TRIPOS>BOND
     1    19    20    1
     2    20    13    1
     3    13    14   ar
     4    14    15   ar
     5    15    16   ar
     6    16    10    1
     7    10    11    2
     8    10    12    2
     9    10     1    1
    10     1     2    1
    11     2     3    1
    12     3     4   ar
    13     4     5   ar
    14     5     6   ar
    15     6    21    1
    16    21    22    2
    17    22    23    1
    18    23    24    2
    19    23    25   am
    20    25    26    1
    21     6     7   ar
    22     7     8   ar
    23     8     9    1
    24    16    17   ar
    25    17    18   ar
    26    18    13   ar
    27     9     1    1
    28     8     3   ar
    29    25    27    1
    30    26    28    1
@<TRIPOS>MOLECULE
*****
 28 30 0 0 0
SMALL
GASTEIGER

@<TRIPOS>ATOM
      1 N          63.4337   85.7014   14.3970 N.3     1  UNL1       -0.1466
      2 C          62.8616   86.1974   15.6918 C.3     1  UNL1        0.1222
      3 C          63.2910   87.6232   15.8724 C.ar    1  UNL1       -0.0071
      4 C          63.0275   88.6205   16.9614 C.ar    1  UNL1       -0.0031
      5 C          63.6016   90.0031   16.8672 C.ar    1  UNL1       -0.0003
      6 C          64.4392   90.3883   15.6839 C.ar    1  UNL1       -0.0001
      7 C          64.7026   89.3910   14.5949 C.ar    1  UNL1       -0.0031
      8 C          64.1285   88.0085   14.6892 C.ar    1  UNL1       -0.0071
      9 C          64.2167   86.8207   13.7773 C.3     1  UNL1        0.1222
     10 S          63.2543   84.3274   13.8227 S.O2    1  UNL1        0.0639
     11 O          64.1654   83.7685   14.8751 O.2     1  UNL1       -0.1528
     12 O          62.3432   84.8862   12.7703 O.2     1  UNL1       -0.1528
     13 C          62.7162   80.2052   12.0997 C.ar    1  UNL1        0.1388
     14 C          62.4747   80.4449   13.5606 C.ar    1  UNL1        0.0383
     15 C          62.6540   81.8190   14.1349 C.ar    1  UNL1        0.0230
     16 C          63.0750   82.9533   13.2484 C.ar    1  UNL1        0.1224
     17 C          63.3165   82.7136   11.7875 C.ar    1  UNL1        0.0230
     18 C          63.1371   81.3396   11.2132 C.ar    1  UNL1        0.0383
     19 C          62.7164   78.6042   10.0536 C.3     1  UNL1        0.2525
     20 O          62.5368   78.8312   11.5254 O.3     1  UNL1       -0.4714
     21 C          65.0133   91.7709   15.5897 C.2     1  UNL1        0.0047
     22 C          66.4601   91.9601   15.2420 C.2     1  UNL1        0.0598
     23 C          67.0342   93.3428   15.1478 C.2     1  UNL1        0.2679
     24 O          66.4946   94.3117   14.1378 O.2     1  UNL1       -0.2681
     25 N          68.1479   93.7564   16.0634 N.am    1  UNL1       -0.1934
     26 O          68.7220   95.1390   15.9692 O.3     1  UNL1       -0.2949
     27 H          68.5021   93.1205   16.7263 H       1  UNL1        0.1825
     28 H          68.2638   95.6324   15.2710 H       1  UNL1        0.2414
@<TRIPOS>BOND
     1    19    20    1
     2    20    13    1
     3    13    14   ar
     4    14    15   ar
     5    15    16   ar
     6    16    10    1
     7    10    11    2
     8    10    12    2
     9    10     1    1
    10     1     2    1
    11     2     3    1
    12     3     4   ar
    13     4     5   ar
    14     5     6   ar
    15     6    21    1
    16    21    22    2
    17    22    23    1
    18    23    24    2
    19    23    25   am
    20    25    26    1
    21     6     7   ar
    22     7     8   ar
    23     8     9    1
    24    16    17   ar
    25    17    18   ar
    26    18    13   ar
    27     9     1    1
    28     8     3   ar
    29    25    27    1
    30    26    28    1
@<TRIPOS>MOLECULE
*****
 28 30 0 0 0
SMALL
GASTEIGER

@<TRIPOS>ATOM
      1 N          61.5920   93.0330    2.3869 N.3     1  UNL1       -0.1466
      2 C          60.1311   93.2717    2.6291 C.3     1  UNL1        0.1222
      3 C          59.6817   92.3361    3.7120 C.ar    1  UNL1       -0.0071
      4 C          58.3480   92.1226    4.3643 C.ar    1  UNL1       -0.0031
      5 C          58.1975   91.0920    5.4438 C.ar    1  UNL1       -0.0003
      6 C          59.3808   90.2750    5.8709 C.ar    1  UNL1       -0.0001
      7 C          60.7145   90.4885    5.2186 C.ar    1  UNL1       -0.0031
      8 C          60.8649   91.5191    4.1391 C.ar    1  UNL1       -0.0071
      9 C          62.0455   91.9498    3.3202 C.3     1  UNL1        0.1222
     10 S          62.4489   93.7512    1.3870 S.O2    1  UNL1        0.0639
     11 O          63.6774   93.1727    2.0242 O.2     1  UNL1       -0.1528
     12 O          61.2204   94.3298    0.7498 O.2     1  UNL1       -0.1528
     13 C          65.0197   95.9061   -1.6126 C.ar    1  UNL1        0.1388
     14 C          65.2839   96.0676   -0.1450 C.ar    1  UNL1        0.0383
     15 C          64.4270   95.3493    0.8549 C.ar    1  UNL1        0.0230
     16 C          63.3058   94.4695    0.3871 C.ar    1  UNL1        0.1224
     17 C          63.0416   94.3080   -1.0805 C.ar    1  UNL1        0.0230
     18 C          63.8985   95.0263   -2.0804 C.ar    1  UNL1        0.0383
     19 C          65.5043   96.6122   -4.0655 C.3     1  UNL1        0.2525
     20 O          65.8766   96.6244   -2.6125 O.3     1  UNL1       -0.4714
     21 C          59.2302   89.2444    6.9504 C.2     1  UNL1        0.0047
     22 C          60.1457   89.2635    8.1385 C.2     1  UNL1        0.0598
     23 C          59.9952   88.2329    9.2180 C.2     1  UNL1        0.2679
     24 O          59.5924   86.8315    8.8661 O.2     1  UNL1       -0.2681
     25 N          60.2474   88.6037   10.6493 N.am    1  UNL1       -0.1934
     26 O          60.0969   87.5731   11.7288 O.3     1  UNL1       -0.2949
     27 H          60.5118   89.5235   10.8803 H       1  UNL1        0.1825
     28 H          59.8339   86.7272   11.3337 H       1  UNL1        0.2414
@<TRIPOS>BOND
     1    19    20    1
     2    20    13    1
     3    13    14   ar
     4    14    15   ar
     5    15    16   ar
     6    16    10    1
     7    10    11    2
     8    10    12    2
     9    10     1    1
    10     1     2    1
    11     2     3    1
    12     3     4   ar
    13     4     5   ar
    14     5     6   ar
    15     6    21    1
    16    21    22    2
    17    22    23    1
    18    23    24    2
    19    23    25   am
    20    25    26    1
    21     6     7   ar
    22     7     8   ar
    23     8     9    1
    24    16    17   ar
    25    17    18   ar
    26    18    13   ar
    27     9     1    1
    28     8     3   ar
    29    25    27    1
    30    26    28    1
@<TRIPOS>MOLECULE
*****
 28 30 0 0 0
SMALL
GASTEIGER

@<TRIPOS>ATOM
      1 N          63.5748   90.3018   11.9966 N.3     1  UNL1       -0.1466
      2 C          63.1108   88.8754   11.9787 C.3     1  UNL1        0.1222
      3 C          62.0833   88.7357   10.8949 C.ar    1  UNL1       -0.0071
      4 C          61.2814   87.5615   10.4174 C.ar    1  UNL1       -0.0031
      5 C          60.3084   87.7272    9.2879 C.ar    1  UNL1       -0.0003
      6 C          60.1373   89.0673    8.6359 C.ar    1  UNL1       -0.0001
      7 C          60.9393   90.2415    9.1134 C.ar    1  UNL1       -0.0031
      8 C          61.9123   90.0757   10.2429 C.ar    1  UNL1       -0.0071
      9 C          62.8340   91.0436   10.9238 C.3     1  UNL1        0.1222
     10 S          64.5996   90.8840   12.9244 S.O2    1  UNL1        0.0639
     11 O          64.3635   89.7608   13.8901 O.2     1  UNL1       -0.1528
     12 O          64.8356   92.0073   11.9587 O.2     1  UNL1       -0.1528
     13 C          67.6739   92.6308   15.7078 C.ar    1  UNL1        0.1388
     14 C          68.0447   92.3020   14.2920 C.ar    1  UNL1        0.0383
     15 C          67.0199   91.7198   13.3642 C.ar    1  UNL1        0.0230
     16 C          65.6244   91.4663   13.8522 C.ar    1  UNL1        0.1224
     17 C          65.2536   91.7951   15.2679 C.ar    1  UNL1        0.0230
     18 C          66.2784   92.3774   16.1957 C.ar    1  UNL1        0.0383
     19 C          69.5087   94.4009   16.2079 C.3     1  UNL1        0.2525
     20 O          68.6987   93.2131   16.6355 O.3     1  UNL1       -0.4714
     21 C          59.1643   89.2330    7.5064 C.2     1  UNL1        0.0047
     22 C          59.1215   90.5192    6.7359 C.2     1  UNL1        0.0598
     23 C          58.1485   90.6849    5.6064 C.2     1  UNL1        0.2679
     24 O          58.6058   91.2674    4.3019 O.2     1  UNL1       -0.2681
     25 N          56.7182   90.2682    5.7814 N.am    1  UNL1       -0.1934
     26 O          55.7452   90.4340    4.6519 O.3     1  UNL1       -0.2949
     27 H          56.4181   89.8860    6.6375 H       1  UNL1        0.1825
     28 H          56.1999   90.8214    3.8876 H       1  UNL1        0.2414
@<TRIPOS>BOND
     1    19    20    1
     2    20    13    1
     3    13    14   ar
     4    14    15   ar
     5    15    16   ar
     6    16    10    1
     7    10    11    2
     8    10    12    2
     9    10     1    1
    10     1     2    1
    11     2     3    1
    12     3     4   ar
    13     4     5   ar
    14     5     6   ar
    15     6    21    1
    16    21    22    2
    17    22    23    1
    18    23    24    2
    19    23    25   am
    20    25    26    1
    21     6     7   ar
    22     7     8   ar
    23     8     9    1
    24    16    17   ar
    25    17    18   ar
    26    18    13   ar
    27     9     1    1
    28     8     3   ar
    29    25    27    1
    30    26    28    1
@<TRIPOS>MOLECULE
*****
 28 30 0 0 0
SMALL
GASTEIGER

@<TRIPOS>ATOM
      1 N          63.5089   86.1173   14.6309 N.3     1  UNL1       -0.1466
      2 C          63.0880   86.8371   15.8777 C.3     1  UNL1        0.1222
      3 C          63.5455   88.2614   15.7677 C.ar    1  UNL1       -0.0071
      4 C          63.4123   89.4329   16.6949 C.ar    1  UNL1       -0.0031
      5 C          63.9827   90.7649   16.3072 C.ar    1  UNL1       -0.0003
      6 C          64.6865   90.9253   14.9923 C.ar    1  UNL1       -0.0001
      7 C          64.8197   89.7538   14.0651 C.ar    1  UNL1       -0.0031
      8 C          64.2492   88.4219   14.4528 C.ar    1  UNL1       -0.0071
      9 C          64.2266   87.0968   13.7502 C.3     1  UNL1        0.1222
     10 S          63.2564   84.6719   14.3194 S.O2    1  UNL1        0.0639
     11 O          61.9282   84.7547   15.0114 O.2     1  UNL1       -0.1528
     12 O          64.5847   84.5890   13.6273 O.2     1  UNL1       -0.1528
     13 C          62.4991   80.3356   13.3849 C.ar    1  UNL1        0.1388
     14 C          63.7467   81.0033   12.8873 C.ar    1  UNL1        0.0383
     15 C          63.9992   82.4487   13.1988 C.ar    1  UNL1        0.0230
     16 C          63.0040   83.2265   14.0079 C.ar    1  UNL1        0.1224
     17 C          61.7563   82.5588   14.5054 C.ar    1  UNL1        0.0230
     18 C          61.5039   81.1134   14.1939 C.ar    1  UNL1        0.0383
     19 C          62.5350   78.3572   11.7013 C.3     1  UNL1        0.2525
     20 O          62.2466   78.8902   13.0734 O.3     1  UNL1       -0.4714
     21 C          65.2569   92.2574   14.6046 C.2     1  UNL1        0.0047
     22 C          65.6684   92.5126   13.1849 C.2     1  UNL1        0.0598
     23 C          66.2389   93.8446   12.7972 C.2     1  UNL1        0.2679
     24 O          66.5235   94.8739   13.8506 O.2     1  UNL1       -0.2681
     25 N          66.5247   94.1474   11.3562 N.am    1  UNL1       -0.1934
     26 O          67.0951   95.4794   10.9686 O.3     1  UNL1       -0.2949
     27 H          66.3378   93.4719   10.6648 H       1  UNL1        0.1825
     28 H          67.2177   96.0222   11.7631 H       1  UNL1        0.2414
@<TRIPOS>BOND
     1    19    20    1
     2    20    13    1
     3    13    14   ar
     4    14    15   ar
     5    15    16   ar
     6    16    10    1
     7    10    11    2
     8    10    12    2
     9    10     1    1
    10     1     2    1
    11     2     3    1
    12     3     4   ar
    13     4     5   ar
    14     5     6   ar
    15     6    21    1
    16    21    22    2
    17    22    23    1
    18    23    24    2
    19    23    25   am
    20    25    26    1
    21     6     7   ar
    22     7     8   ar
    23     8     9    1
    24    16    17   ar
    25    17    18   ar
    26    18    13   ar
    27     9     1    1
    28     8     3   ar
    29    25    27    1
    30    26    28    1
@<TRIPOS>MOLECULE
*****
 28 30 0 0 0
SMALL
GASTEIGER

@<TRIPOS>ATOM
      1 N          62.5221   93.6511    0.4358 N.3     1  UNL1       -0.1466
      2 C          61.0884   93.9270    0.7798 C.3     1  UNL1        0.1222
      3 C          60.7509   93.1499    2.0177 C.ar    1  UNL1       -0.0071
      4 C          59.4863   93.0332    2.8159 C.ar    1  UNL1       -0.0031
      5 C          59.4469   92.1603    4.0350 C.ar    1  UNL1       -0.0003
      6 C          60.6720   91.4040    4.4560 C.ar    1  UNL1       -0.0001
      7 C          61.9365   91.5207    3.6578 C.ar    1  UNL1       -0.0031
      8 C          61.9760   92.3937    2.4386 C.ar    1  UNL1       -0.0071
      9 C          63.0707   92.7034    1.4609 C.3     1  UNL1        0.1222
     10 S          63.2750   94.2225   -0.7290 S.O2    1  UNL1        0.0639
     11 O          64.5592   94.0853    0.0339 O.2     1  UNL1       -0.1528
     12 O          61.9908   94.3596   -1.4919 O.2     1  UNL1       -0.1528
     13 C          65.5338   95.9366   -4.2232 C.ar    1  UNL1        0.1388
     14 C          64.7110   94.6947   -4.3984 C.ar    1  UNL1        0.0383
     15 C          63.9581   94.1234   -3.2337 C.ar    1  UNL1        0.0230
     16 C          64.0279   94.7939   -1.8937 C.ar    1  UNL1        0.1224
     17 C          64.8507   96.0357   -1.7185 C.ar    1  UNL1        0.0230
     18 C          65.6036   96.6071   -2.8833 C.ar    1  UNL1        0.0383
     19 C          66.0254   95.9966   -6.7737 C.3     1  UNL1        0.2525
     20 O          66.2867   96.5080   -5.3880 O.3     1  UNL1       -0.4714
     21 C          60.6324   90.5311    5.6752 C.2     1  UNL1        0.0047
     22 C          59.3751   89.7937    6.0292 C.2     1  UNL1        0.0598
     23 C          59.3356   88.9207    7.2484 C.2     1  UNL1        0.2679
     24 O          59.9389   89.4014    8.5349 O.2     1  UNL1       -0.2681
     25 N          58.6929   87.5671    7.1811 N.am    1  UNL1       -0.1934
     26 O          58.6534   86.6942    8.4003 O.3     1  UNL1       -0.2949
     27 H          58.2969   87.2516    6.3368 H       1  UNL1        0.1825
     28 H          59.0835   87.1518    9.1396 H       1  UNL1        0.2414
@<TRIPOS>BOND
     1    19    20    1
     2    20    13    1
     3    13    14   ar
     4    14    15   ar
     5    15    16   ar
     6    16    10    1
     7    10    11    2
     8    10    12    2
     9    10     1    1
    10     1     2    1
    11     2     3    1
    12     3     4   ar
    13     4     5   ar
    14     5     6   ar
    15     6    21    1
    16    21    22    2
    17    22    23    1
    18    23    24    2
    19    23    25   am
    20    25    26    1
    21     6     7   ar
    22     7     8   ar
    23     8     9    1
    24    16    17   ar
    25    17    18   ar
    26    18    13   ar
    27     9     1    1
    28     8     3   ar
    29    25    27    1
    30    26    28    1
@<TRIPOS>MOLECULE
*****
 28 30 0 0 0
SMALL
GASTEIGER

@<TRIPOS>ATOM
      1 N          60.9081   92.9421    2.4731 N.3     1  UNL1       -0.1466
      2 C          59.4366   92.9782    2.7618 C.3     1  UNL1        0.1222
      3 C          59.1662   92.0496    3.9084 C.ar    1  UNL1       -0.0071
      4 C          57.9008   91.6807    4.6243 C.ar    1  UNL1       -0.0031
      5 C          57.9398   90.7017    5.7601 C.ar    1  UNL1       -0.0003
      6 C          59.2442   90.0917    6.1800 C.ar    1  UNL1       -0.0001
      7 C          60.5097   90.4606    5.4641 C.ar    1  UNL1       -0.0031
      8 C          60.4706   91.4395    4.3283 C.ar    1  UNL1       -0.0071
      9 C          61.5471   91.9911    3.4412 C.3     1  UNL1        0.1222
     10 S          61.6162   93.7203    1.4039 S.O2    1  UNL1        0.0639
     11 O          62.8348   92.8655    1.5890 O.2     1  UNL1       -0.1528
     12 O          60.3975   94.5750    1.2189 O.2     1  UNL1       -0.1528
     13 C          63.7404   96.0549   -1.8034 C.ar    1  UNL1        0.1388
     14 C          62.7290   95.0129   -2.1794 C.ar    1  UNL1        0.0383
     15 C          62.0209   94.2347   -1.1103 C.ar    1  UNL1        0.0230
     16 C          62.3242   94.4985    0.3348 C.ar    1  UNL1        0.1224
     17 C          63.3356   95.5404    0.7108 C.ar    1  UNL1        0.0230
     18 C          64.0437   96.3186   -0.3583 C.ar    1  UNL1        0.0383
     19 C          64.1009   96.6132   -4.3150 C.3     1  UNL1        0.2525
     20 O          64.4485   96.8331   -2.8726 O.3     1  UNL1       -0.4714
     21 C          59.2832   89.1127    7.3159 C.2     1  UNL1        0.0047
     22 C          60.2734   89.2933    8.4280 C.2     1  UNL1        0.0598
     23 C          60.3124   88.3143    9.5639 C.2     1  UNL1        0.2679
     24 O          59.6862   88.6676   10.8803 O.2     1  UNL1       -0.2681
     25 N          60.9775   86.9820    9.3833 N.am    1  UNL1       -0.1934
     26 O          61.0165   86.0032   10.5191 O.3     1  UNL1       -0.2949
     27 H          61.3885   86.7501    8.5192 H       1  UNL1        0.1825
     28 H          60.5703   86.3855   11.2909 H       1  UNL1        0.2414
@<TRIPOS>BOND
     1    19    20    1
     2    20    13    1
     3    13    14   ar
     4    14    15   ar
     5    15    16   ar
     6    16    10    1
     7    10    11    2
     8    10    12    2
     9    10     1    1
    10     1     2    1
    11     2     3    1
    12     3     4   ar
    13     4     5   ar
    14     5     6   ar
    15     6    21    1
    16    21    22    2
    17    22    23    1
    18    23    24    2
    19    23    25   am
    20    25    26    1
    21     6     7   ar
    22     7     8   ar
    23     8     9    1
    24    16    17   ar
    25    17    18   ar
    26    18    13   ar
    27     9     1    1
    28     8     3   ar
    29    25    27    1
    30    26    28    1
@<TRIPOS>MOLECULE
*****
 28 30 0 0 0
SMALL
GASTEIGER

@<TRIPOS>ATOM
      1 N          72.6013   76.3043   14.1445 N.3     1  UNL1       -0.1466
      2 C          73.5352   76.0196   15.2832 C.3     1  UNL1        0.1222
      3 C          73.0742   74.7615   15.9575 C.ar    1  UNL1       -0.0071
      4 C          73.6067   74.0010   17.1356 C.ar    1  UNL1       -0.0031
      5 C          72.9204   72.7477   17.5917 C.ar    1  UNL1       -0.0003
      6 C          71.7015   72.2548   16.8696 C.ar    1  UNL1       -0.0001
      7 C          71.1689   73.0153   15.6915 C.ar    1  UNL1       -0.0031
      8 C          71.8553   74.2686   15.2354 C.ar    1  UNL1       -0.0071
      9 C          71.5630   75.2221   14.1150 C.3     1  UNL1        0.1222
     10 S          72.6901   77.4670   13.2010 S.O2    1  UNL1        0.0639
     11 O          72.7817   76.5194   12.0418 O.2     1  UNL1       -0.1528
     12 O          72.5985   78.4146   14.3601 O.2     1  UNL1       -0.1528
     13 C          72.9564   80.9551   10.3704 C.ar    1  UNL1        0.1388
     14 C          73.3204   81.1318   11.8148 C.ar    1  UNL1        0.0383
     15 C          73.2317   79.9691   12.7583 C.ar    1  UNL1        0.0230
     16 C          72.7789   78.6297   12.2575 C.ar    1  UNL1        0.1224
     17 C          72.4149   78.4530   10.8131 C.ar    1  UNL1        0.0230
     18 C          72.5036   79.6157    9.8696 C.ar    1  UNL1        0.0383
     19 C          71.8945   82.4365    8.5190 C.3     1  UNL1        0.2525
     20 O          73.0452   82.1178    9.4269 O.3     1  UNL1       -0.4714
     21 C          71.0152   71.0014   17.3258 C.2     1  UNL1        0.0047
     22 C          71.7432   69.6906   17.2856 C.2     1  UNL1        0.0598
     23 C          71.0568   68.4372   17.7418 C.2     1  UNL1        0.2679
     24 O          71.1123   67.2008   16.8942 O.2     1  UNL1       -0.2681
     25 N          70.3151   68.4202   19.0454 N.am    1  UNL1       -0.1934
     26 O          69.6288   67.1668   19.5014 O.3     1  UNL1       -0.2949
     27 H          70.2787   69.2316   19.6017 H       1  UNL1        0.1825
     28 H          69.7615   66.4674   18.8425 H       1  UNL1        0.2414
@<TRIPOS>BOND
     1    19    20    1
     2    20    13    1
     3    13    14   ar
     4    14    15   ar
     5    15    16   ar
     6    16    10    1
     7    10    11    2
     8    10    12    2
     9    10     1    1
    10     1     2    1
    11     2     3    1
    12     3     4   ar
    13     4     5   ar
    14     5     6   ar
    15     6    21    1
    16    21    22    2
    17    22    23    1
    18    23    24    2
    19    23    25   am
    20    25    26    1
    21     6     7   ar
    22     7     8   ar
    23     8     9    1
    24    16    17   ar
    25    17    18   ar
    26    18    13   ar
    27     9     1    1
    28     8     3   ar
    29    25    27    1
    30    26    28    1
