@<TRIPOS>MOLECULE
*****
 38 42 0 0 0
SMALL
GASTEIGER

@<TRIPOS>ATOM
      1 C          62.0768   89.8676   11.6040 C.3     1  UNL1        0.0261
      2 C          60.9526   90.8415   11.4099 C.3     1  UNL1        0.0020
      3 C          60.6631   89.3737   11.5185 C.3     1  UNL1        0.0020
      4 C          63.2405   90.8138   11.6246 C.3     1  UNL1        0.1095
      5 C          63.4876   91.7244   10.4585 C.3     1  UNL1        0.1598
      6 O          64.6514   92.6706   10.4792 O.3     1  UNL1       -0.3508
      7 C          65.5681   92.7061   11.6660 C.3     1  UNL1        0.1598
      8 C          65.3210   91.7955   12.8320 C.3     1  UNL1        0.1091
      9 N          64.1573   90.8494   12.8114 N.3     1  UNL1       -0.1533
     10 C          66.2377   91.8311   14.0188 C.3     1  UNL1        0.0189
     11 C          66.4816   92.1569   15.4625 C.3     1  UNL1        0.0015
     12 C          67.5816   91.5669   14.6306 C.3     1  UNL1        0.0015
     13 S          63.9102   89.9388   13.9774 S.O2    1  UNL1        0.0634
     14 O          63.0939   91.0087   14.6400 O.2     1  UNL1       -0.1528
     15 O          64.5691   88.8061   13.6529 O.2     1  UNL1       -0.1528
     16 C          63.6630   89.0283   15.1435 C.ar    1  UNL1        0.1223
     17 C          63.0870   89.5775   16.4151 C.ar    1  UNL1        0.0222
     18 C          62.8398   88.6670   17.5812 C.ar    1  UNL1        0.0310
     19 C          63.1687   87.2073   17.4760 C.ar    1  UNL1        0.1402
     20 F          62.9215   86.2968   18.6421 F       1  UNL1       -0.2042
     21 C          63.7448   86.6581   16.2044 C.ar    1  UNL1        0.0310
     22 C          63.9919   87.5686   15.0383 C.ar    1  UNL1        0.0222
     23 C          62.7969   88.5651   11.7909 C.3     1  UNL1        0.0867
     24 C          62.3386   85.2836    8.7459 C.3     1  UNL1        0.0230
     25 C          62.5121   84.9422   10.1962 C.3     1  UNL1        0.0914
     26 C          62.5329   83.5068   10.6315 C.3     1  UNL1        0.0921
     27 N          62.7064   83.1654   12.0817 N.3     1  UNL1       -0.2700
     28 C          62.8592   84.2592   13.0967 C.3     1  UNL1        0.0939
     29 C          62.8384   85.6945   12.6615 C.3     1  UNL1        0.1107
     30 N          62.6649   86.0360   11.2112 N.am    1  UNL1       -0.2784
     31 C          62.6442   87.4713   10.7759 C.2     1  UNL1        0.2257
     32 O          62.4706   87.8128    9.3256 O.2     1  UNL1       -0.2749
     33 C          62.7272   81.7301   12.5170 C.3     1  UNL1        0.0726
     34 C          62.3249   82.1441   13.9014 C.3     1  UNL1        0.0186
     35 C          63.1294   81.3161   11.1325 C.3     1  UNL1        0.0186
     36 C          62.7479   80.2947   12.9523 C.3     1  UNL1        0.1516
     37 O          63.1665   79.9404   14.3484 O.3     1  UNL1       -0.3806
     38 H          64.1032   80.1607   14.4709 H       1  UNL1        0.2105
@<TRIPOS>BOND
     1    25    24    1
     2    25    26    1
     3    26    27    1
     4    27    33    1
     5    33    34    1
     6    33    35    1
     7    33    36    1
     8    36    37    1
     9    27    28    1
    10    28    29    1
    11    29    30    1
    12    30    31   am
    13    31    32    2
    14    31    23    1
    15    23     1    1
    16     4     1    1
    17     4     5    1
    18     5     6    1
    19     6     7    1
    20     7     8    1
    21     8    10    1
    22    10    11    1
    23    11    12    1
    24     8     9    1
    25     9    13    1
    26    13    14    2
    27    13    15    2
    28    13    16    1
    29    16    17   ar
    30    17    18   ar
    31    18    19   ar
    32    19    20    1
    33    19    21   ar
    34    21    22   ar
    35     1     2    1
    36     2     3    1
    37    30    25    1
    38     3     1    1
    39     9     4    1
    40    22    16   ar
    41    12    10    1
    42    37    38    1
@<TRIPOS>MOLECULE
*****
 38 42 0 0 0
SMALL
GASTEIGER

@<TRIPOS>ATOM
      1 C          60.9569   89.1295   11.2463 C.3     1  UNL1        0.0261
      2 C          59.6025   89.2658   11.8764 C.3     1  UNL1        0.0020
      3 C          60.8381   89.4659   12.7032 C.3     1  UNL1        0.0020
      4 C          60.5572   88.8007    9.8384 C.3     1  UNL1        0.1095
      5 C          59.7742   89.7922    9.0299 C.3     1  UNL1        0.1598
      6 O          59.3746   89.4633    7.6220 O.3     1  UNL1       -0.3508
      7 C          59.7580   88.1428    7.0226 C.3     1  UNL1        0.1598
      8 C          60.5411   87.1513    7.8311 C.3     1  UNL1        0.1091
      9 N          60.9407   87.4802    9.2389 N.3     1  UNL1       -0.1533
     10 C          60.9245   85.8308    7.2316 C.3     1  UNL1        0.0189
     11 C          60.5325   84.4972    6.6680 C.3     1  UNL1        0.0015
     12 C          61.9808   84.8774    6.7570 C.3     1  UNL1        0.0015
     13 S          61.7238   86.4886   10.0474 S.O2    1  UNL1        0.0634
     14 O          62.9252   86.7329    9.1832 O.2     1  UNL1       -0.1528
     15 O          60.8452   86.0593   10.9781 O.2     1  UNL1       -0.1528
     16 C          62.5069   85.4971   10.8557 C.ar    1  UNL1        0.1223
     17 C          63.1918   84.3488   10.1755 C.ar    1  UNL1        0.0222
     18 C          63.9750   83.3572   10.9838 C.ar    1  UNL1        0.0310
     19 C          64.0733   83.5138   12.4724 C.ar    1  UNL1        0.1402
     20 F          64.8564   82.5222   13.2807 F       1  UNL1       -0.2042
     21 C          63.3883   84.6620   13.1527 C.ar    1  UNL1        0.0310
     22 C          62.6052   85.6536   12.3443 C.ar    1  UNL1        0.0222
     23 C          62.4501   89.1073   11.1050 C.3     1  UNL1        0.0867
     24 C          64.7157   92.9566   10.5574 C.3     1  UNL1        0.0230
     25 C          64.8838   92.1601   11.8173 C.3     1  UNL1        0.0914
     26 C          65.8071   92.6467   12.8947 C.3     1  UNL1        0.0921
     27 N          65.9752   91.8502   14.1545 N.3     1  UNL1       -0.2700
     28 C          65.2200   90.5671   14.3371 C.3     1  UNL1        0.0939
     29 C          64.2967   90.0805   13.2597 C.3     1  UNL1        0.1107
     30 N          64.1286   90.8770   11.9998 N.am    1  UNL1       -0.2784
     31 C          63.2053   90.3904   10.9225 C.2     1  UNL1        0.2257
     32 O          63.0371   91.1869    9.6625 O.2     1  UNL1       -0.2749
     33 C          66.8985   92.3368   15.2319 C.3     1  UNL1        0.0726
     34 C          68.0673   92.1655   14.3076 C.3     1  UNL1        0.0186
     35 C          65.7297   92.5082   16.1562 C.3     1  UNL1        0.0186
     36 C          67.8219   92.8234   16.3092 C.3     1  UNL1        0.1516
     37 O          68.7838   93.9389   16.0252 O.3     1  UNL1       -0.3806
     38 H          69.4375   93.6437   15.3722 H       1  UNL1        0.2105
@<TRIPOS>BOND
     1    25    24    1
     2    25    26    1
     3    26    27    1
     4    27    33    1
     5    33    34    1
     6    33    35    1
     7    33    36    1
     8    36    37    1
     9    27    28    1
    10    28    29    1
    11    29    30    1
    12    30    31   am
    13    31    32    2
    14    31    23    1
    15    23     1    1
    16     4     1    1
    17     4     5    1
    18     5     6    1
    19     6     7    1
    20     7     8    1
    21     8    10    1
    22    10    11    1
    23    11    12    1
    24     8     9    1
    25     9    13    1
    26    13    14    2
    27    13    15    2
    28    13    16    1
    29    16    17   ar
    30    17    18   ar
    31    18    19   ar
    32    19    20    1
    33    19    21   ar
    34    21    22   ar
    35     1     2    1
    36     2     3    1
    37    30    25    1
    38     3     1    1
    39     9     4    1
    40    22    16   ar
    41    12    10    1
    42    37    38    1
@<TRIPOS>MOLECULE
*****
 38 42 0 0 0
SMALL
GASTEIGER

@<TRIPOS>ATOM
      1 C          61.0142   89.1847   11.3365 C.3     1  UNL1        0.0261
      2 C          59.6659   89.2929   11.9848 C.3     1  UNL1        0.0020
      3 C          60.9084   89.5068   12.7977 C.3     1  UNL1        0.0020
      4 C          60.6023   88.8612    9.9310 C.3     1  UNL1        0.1095
      5 C          59.8240   89.8612    9.1284 C.3     1  UNL1        0.1598
      6 O          59.4121   89.5375    7.7228 O.3     1  UNL1       -0.3508
      7 C          59.7785   88.2138    7.1199 C.3     1  UNL1        0.1598
      8 C          60.5568   87.2138    7.9225 C.3     1  UNL1        0.1091
      9 N          60.9687   87.5374    9.3280 N.3     1  UNL1       -0.1533
     10 C          60.9231   85.8901    7.3195 C.3     1  UNL1        0.0189
     11 C          60.5149   84.5989    6.6744 C.3     1  UNL1        0.0015
     12 C          61.9660   84.8886    6.9202 C.3     1  UNL1        0.0015
     13 S          61.7470   86.5374   10.1306 S.O2    1  UNL1        0.0634
     14 O          62.9568   86.7991    9.2833 O.2     1  UNL1       -0.1528
     15 O          60.8600   86.0911   11.0452 O.2     1  UNL1       -0.1528
     16 C          62.5254   85.5374   10.9331 C.ar    1  UNL1        0.1223
     17 C          63.1405   84.3482   10.2565 C.ar    1  UNL1        0.0222
     18 C          63.9189   83.3481   11.0590 C.ar    1  UNL1        0.0310
     19 C          64.0822   83.5372   12.5381 C.ar    1  UNL1        0.1402
     20 F          64.8606   82.5371   13.3405 F       1  UNL1       -0.2042
     21 C          63.4671   84.7264   13.2146 C.ar    1  UNL1        0.0310
     22 C          62.6887   85.7264   12.4121 C.ar    1  UNL1        0.0222
     23 C          62.5057   89.1889   11.1763 C.3     1  UNL1        0.0867
     24 C          65.0914   91.2410   14.2345 C.3     1  UNL1        0.0230
     25 C          64.9945   91.7924   12.8430 C.3     1  UNL1        0.0914
     26 C          65.7594   93.0279   12.4707 C.3     1  UNL1        0.0921
     27 N          65.6625   93.5793   11.0791 N.3     1  UNL1       -0.2700
     28 C          64.8006   92.8952   10.0597 C.3     1  UNL1        0.0939
     29 C          64.0356   91.6598   10.4319 C.3     1  UNL1        0.1107
     30 N          64.1326   91.1084   11.8235 N.am    1  UNL1       -0.2784
     31 C          63.3676   89.8730   12.1957 C.2     1  UNL1        0.2257
     32 O          63.4645   89.3215   13.5874 O.2     1  UNL1       -0.2749
     33 C          66.4274   94.8147   10.7070 C.3     1  UNL1        0.0726
     34 C          66.7591   94.2083    9.3757 C.3     1  UNL1        0.0186
     35 C          66.0958   95.4211   12.0382 C.3     1  UNL1        0.0186
     36 C          67.1924   96.0501   10.3347 C.3     1  UNL1        0.1516
     37 O          67.8666   96.1405    8.9978 O.3     1  UNL1       -0.3806
     38 H          68.5816   95.4867    8.9514 H       1  UNL1        0.2105
@<TRIPOS>BOND
     1    25    24    1
     2    25    26    1
     3    26    27    1
     4    27    33    1
     5    33    34    1
     6    33    35    1
     7    33    36    1
     8    36    37    1
     9    27    28    1
    10    28    29    1
    11    29    30    1
    12    30    31   am
    13    31    32    2
    14    31    23    1
    15    23     1    1
    16     4     1    1
    17     4     5    1
    18     5     6    1
    19     6     7    1
    20     7     8    1
    21     8    10    1
    22    10    11    1
    23    11    12    1
    24     8     9    1
    25     9    13    1
    26    13    14    2
    27    13    15    2
    28    13    16    1
    29    16    17   ar
    30    17    18   ar
    31    18    19   ar
    32    19    20    1
    33    19    21   ar
    34    21    22   ar
    35     1     2    1
    36     2     3    1
    37    30    25    1
    38     3     1    1
    39     9     4    1
    40    22    16   ar
    41    12    10    1
    42    37    38    1
@<TRIPOS>MOLECULE
*****
 38 42 0 0 0
SMALL
GASTEIGER

@<TRIPOS>ATOM
      1 C          63.8597   90.0084   14.8093 C.3     1  UNL1        0.0261
      2 C          63.4792   91.2869   15.4953 C.3     1  UNL1        0.0020
      3 C          63.8434   90.0794   16.3075 C.3     1  UNL1        0.0020
      4 C          63.7279   90.4324   13.3765 C.3     1  UNL1        0.1095
      5 C          62.6108   89.8917   12.5340 C.3     1  UNL1        0.1598
      6 O          62.4792   90.3158   11.1011 O.3     1  UNL1       -0.3508
      7 C          63.4645   91.2804   10.5109 C.3     1  UNL1        0.1598
      8 C          64.5816   91.8211   11.3535 C.3     1  UNL1        0.1091
      9 N          64.7133   91.3971   12.7862 N.3     1  UNL1       -0.1533
     10 C          65.5670   92.7858   10.7632 C.3     1  UNL1        0.0189
     11 C          66.8915   93.0546   10.1126 C.3     1  UNL1        0.0015
     12 C          65.9491   94.1878   10.3914 C.3     1  UNL1        0.0015
     13 S          65.8304   91.9377   13.6287 S.O2    1  UNL1        0.0634
     14 O          65.1922   93.2949   13.6039 O.2     1  UNL1       -0.1528
     15 O          66.6310   90.8703   13.8339 O.2     1  UNL1       -0.1528
     16 C          66.9474   92.4784   14.4712 C.ar    1  UNL1        0.1223
     17 C          67.1965   93.9566   14.5276 C.ar    1  UNL1        0.0222
     18 C          68.3135   94.4974   15.3701 C.ar    1  UNL1        0.0310
     19 C          69.1815   93.5601   16.1563 C.ar    1  UNL1        0.1402
     20 F          70.2985   94.1009   16.9988 F       1  UNL1       -0.2042
     21 C          68.9324   92.0819   16.0999 C.ar    1  UNL1        0.0310
     22 C          67.8154   91.5412   15.2574 C.ar    1  UNL1        0.0222
     23 C          64.2859   88.5826   14.6207 C.3     1  UNL1        0.0867
     24 C          62.4607   85.3360   17.1463 C.3     1  UNL1        0.0230
     25 C          62.8970   85.0382   15.7425 C.3     1  UNL1        0.0914
     26 C          62.7249   83.6581   15.1804 C.3     1  UNL1        0.0921
     27 N          63.1612   83.3603   13.7765 N.3     1  UNL1       -0.2700
     28 C          63.7696   84.4425   12.9347 C.3     1  UNL1        0.0939
     29 C          63.9417   85.8225   13.4967 C.3     1  UNL1        0.1107
     30 N          63.5054   86.1204   14.9006 N.am    1  UNL1       -0.2784
     31 C          63.6775   87.5004   15.4626 C.2     1  UNL1        0.2257
     32 O          63.2412   87.7983   16.8665 O.2     1  UNL1       -0.2749
     33 C          62.9892   81.9802   13.2145 C.3     1  UNL1        0.0726
     34 C          61.8690   81.7270   14.1794 C.3     1  UNL1        0.0186
     35 C          64.1093   82.2335   12.2496 C.3     1  UNL1        0.0186
     36 C          62.8170   80.6001   12.6525 C.3     1  UNL1        0.1516
     37 O          62.0741   79.5587   13.4358 O.3     1  UNL1       -0.3806
     38 H          62.5702   79.3452   14.2415 H       1  UNL1        0.2105
@<TRIPOS>BOND
     1    25    24    1
     2    25    26    1
     3    26    27    1
     4    27    33    1
     5    33    34    1
     6    33    35    1
     7    33    36    1
     8    36    37    1
     9    27    28    1
    10    28    29    1
    11    29    30    1
    12    30    31   am
    13    31    32    2
    14    31    23    1
    15    23     1    1
    16     4     1    1
    17     4     5    1
    18     5     6    1
    19     6     7    1
    20     7     8    1
    21     8    10    1
    22    10    11    1
    23    11    12    1
    24     8     9    1
    25     9    13    1
    26    13    14    2
    27    13    15    2
    28    13    16    1
    29    16    17   ar
    30    17    18   ar
    31    18    19   ar
    32    19    20    1
    33    19    21   ar
    34    21    22   ar
    35     1     2    1
    36     2     3    1
    37    30    25    1
    38     3     1    1
    39     9     4    1
    40    22    16   ar
    41    12    10    1
    42    37    38    1
@<TRIPOS>MOLECULE
*****
 38 42 0 0 0
SMALL
GASTEIGER

@<TRIPOS>ATOM
      1 C          63.3938   90.3778   12.5550 C.3     1  UNL1        0.0261
      2 C          63.0203   91.7025   11.9587 C.3     1  UNL1        0.0020
      3 C          62.8344   90.4433   11.1648 C.3     1  UNL1        0.0020
      4 C          63.8824   90.8262   13.9004 C.3     1  UNL1        0.1095
      5 C          63.1697   90.3824   15.1434 C.3     1  UNL1        0.1598
      6 O          63.6584   90.8310   16.4889 O.3     1  UNL1       -0.3508
      7 C          64.8598   91.7232   16.5912 C.3     1  UNL1        0.1598
      8 C          65.5725   92.1670   15.3482 C.3     1  UNL1        0.1091
      9 N          65.0838   91.7186   14.0028 N.3     1  UNL1       -0.1533
     10 C          66.7739   93.0594   15.4505 C.3     1  UNL1        0.0189
     11 C          67.5777   94.2192   14.9420 C.3     1  UNL1        0.0015
     12 C          68.0509   93.4450   16.1365 C.3     1  UNL1        0.0015
     13 S          65.7965   92.1623   12.7598 S.O2    1  UNL1        0.0634
     14 O          66.7694   91.0311   12.9137 O.2     1  UNL1       -0.1528
     15 O          65.1022   93.2469   12.3546 O.2     1  UNL1       -0.1528
     16 C          66.5093   92.6061   11.5168 C.ar    1  UNL1        0.1223
     17 C          67.7240   91.8641   11.0434 C.ar    1  UNL1        0.0222
     18 C          68.4368   92.3077    9.8004 C.ar    1  UNL1        0.0310
     19 C          67.9349   93.4934    9.0307 C.ar    1  UNL1        0.1402
     20 F          68.6478   93.9370    7.7877 F       1  UNL1       -0.2042
     21 C          66.7202   94.2354    9.5041 C.ar    1  UNL1        0.0310
     22 C          66.0075   93.7917   10.7471 C.ar    1  UNL1        0.0222
     23 C          63.5977   88.8973   12.6842 C.3     1  UNL1        0.0867
     24 C          61.5514   86.0866    9.8271 C.3     1  UNL1        0.0230
     25 C          62.2101   85.5509   11.0636 C.3     1  UNL1        0.0914
     26 C          62.1868   84.0782   11.3478 C.3     1  UNL1        0.0921
     27 N          62.8456   83.5424   12.5843 N.3     1  UNL1       -0.2700
     28 C          63.5277   84.4793   13.5366 C.3     1  UNL1        0.0939
     29 C          63.5510   85.9519   13.2525 C.3     1  UNL1        0.1107
     30 N          62.8923   86.4878   12.0160 N.am    1  UNL1       -0.2784
     31 C          62.9156   87.9604   11.7318 C.2     1  UNL1        0.2257
     32 O          62.2568   88.4962   10.4953 O.2     1  UNL1       -0.2749
     33 C          62.8223   82.0698   12.8684 C.3     1  UNL1        0.0726
     34 C          63.2433   81.7906   11.4561 C.3     1  UNL1        0.0186
     35 C          62.4012   82.3490   14.2808 C.3     1  UNL1        0.0186
     36 C          62.7989   80.5971   13.1525 C.3     1  UNL1        0.1516
     37 O          63.4437   80.0631   14.3972 O.3     1  UNL1       -0.3806
     38 H          64.4023   80.2043   14.3508 H       1  UNL1        0.2105
@<TRIPOS>BOND
     1    25    24    1
     2    25    26    1
     3    26    27    1
     4    27    33    1
     5    33    34    1
     6    33    35    1
     7    33    36    1
     8    36    37    1
     9    27    28    1
    10    28    29    1
    11    29    30    1
    12    30    31   am
    13    31    32    2
    14    31    23    1
    15    23     1    1
    16     4     1    1
    17     4     5    1
    18     5     6    1
    19     6     7    1
    20     7     8    1
    21     8    10    1
    22    10    11    1
    23    11    12    1
    24     8     9    1
    25     9    13    1
    26    13    14    2
    27    13    15    2
    28    13    16    1
    29    16    17   ar
    30    17    18   ar
    31    18    19   ar
    32    19    20    1
    33    19    21   ar
    34    21    22   ar
    35     1     2    1
    36     2     3    1
    37    30    25    1
    38     3     1    1
    39     9     4    1
    40    22    16   ar
    41    12    10    1
    42    37    38    1
@<TRIPOS>MOLECULE
*****
 38 42 0 0 0
SMALL
GASTEIGER

@<TRIPOS>ATOM
      1 C          59.3947   94.8355   -1.2703 C.3     1  UNL1        0.0261
      2 C          58.8723   95.9428   -0.4037 C.3     1  UNL1        0.0020
      3 C          57.9741   94.8052   -0.7899 C.3     1  UNL1        0.0020
      4 C          60.8039   95.3072   -1.4744 C.3     1  UNL1        0.1095
      5 C          61.1452   96.1594   -2.6607 C.3     1  UNL1        0.1598
      6 O          62.5545   96.6310   -2.8648 O.3     1  UNL1       -0.3508
      7 C          63.6224   96.2504   -1.8825 C.3     1  UNL1        0.1598
      8 C          63.2810   95.3982   -0.6963 C.3     1  UNL1        0.1091
      9 N          61.8718   94.9266   -0.4922 N.3     1  UNL1       -0.1533
     10 C          64.3490   95.0177    0.2860 C.3     1  UNL1        0.0189
     11 C          65.4094   94.0621    0.7465 C.3     1  UNL1        0.0015
     12 C          65.1381   95.3142    1.5266 C.3     1  UNL1        0.0015
     13 S          61.5305   94.0744    0.6941 S.O2    1  UNL1        0.0634
     14 O          61.2971   95.3089    1.5137 O.2     1  UNL1       -0.1528
     15 O          61.6599   92.8109    0.2368 O.2     1  UNL1       -0.1528
     16 C          61.1891   93.2224    1.8804 C.ar    1  UNL1        0.1223
     17 C          62.2491   92.3842    2.5317 C.ar    1  UNL1        0.0222
     18 C          61.9079   91.5321    3.7181 C.ar    1  UNL1        0.0310
     19 C          60.5066   91.5181    4.2532 C.ar    1  UNL1        0.1402
     20 F          60.1653   90.6659    5.4395 F       1  UNL1       -0.2042
     21 C          59.4466   92.3562    3.6018 C.ar    1  UNL1        0.0310
     22 C          59.7879   93.2083    2.4155 C.ar    1  UNL1        0.0222
     23 C          59.4277   93.5644   -2.0661 C.3     1  UNL1        0.0867
     24 C          58.0248   93.5496   -6.3418 C.3     1  UNL1        0.0230
     25 C          57.3815   92.6391   -5.3382 C.3     1  UNL1        0.0914
     26 C          56.2705   91.7237   -5.7598 C.3     1  UNL1        0.0921
     27 N          55.6272   90.8132   -4.7563 N.3     1  UNL1       -0.2700
     28 C          56.0948   90.8182   -3.3310 C.3     1  UNL1        0.0939
     29 C          57.2058   91.7335   -2.9094 C.3     1  UNL1        0.1107
     30 N          57.8491   92.6441   -3.9130 N.am    1  UNL1       -0.2784
     31 C          58.9601   93.5594   -3.4913 C.2     1  UNL1        0.2257
     32 O          59.6035   94.4700   -4.4949 O.2     1  UNL1       -0.2749
     33 C          54.5163   89.8979   -5.1779 C.3     1  UNL1        0.0726
     34 C          54.5210   90.5207   -6.5425 C.3     1  UNL1        0.0186
     35 C          54.5116   89.2750   -3.8134 C.3     1  UNL1        0.0186
     36 C          53.4053   88.9825   -5.5997 C.3     1  UNL1        0.1516
     37 O          52.6758   89.2316   -6.8865 O.3     1  UNL1       -0.3806
     38 H          52.1840   90.0653   -6.8231 H       1  UNL1        0.2105
@<TRIPOS>BOND
     1    25    24    1
     2    25    26    1
     3    26    27    1
     4    27    33    1
     5    33    34    1
     6    33    35    1
     7    33    36    1
     8    36    37    1
     9    27    28    1
    10    28    29    1
    11    29    30    1
    12    30    31   am
    13    31    32    2
    14    31    23    1
    15    23     1    1
    16     4     1    1
    17     4     5    1
    18     5     6    1
    19     6     7    1
    20     7     8    1
    21     8    10    1
    22    10    11    1
    23    11    12    1
    24     8     9    1
    25     9    13    1
    26    13    14    2
    27    13    15    2
    28    13    16    1
    29    16    17   ar
    30    17    18   ar
    31    18    19   ar
    32    19    20    1
    33    19    21   ar
    34    21    22   ar
    35     1     2    1
    36     2     3    1
    37    30    25    1
    38     3     1    1
    39     9     4    1
    40    22    16   ar
    41    12    10    1
    42    37    38    1
@<TRIPOS>MOLECULE
*****
 38 42 0 0 0
SMALL
GASTEIGER

@<TRIPOS>ATOM
      1 C          61.1562   88.0701   10.8979 C.3     1  UNL1        0.0261
      2 C          59.6918   88.0520   10.5735 C.3     1  UNL1        0.0020
      3 C          60.2264   89.0339   11.5736 C.3     1  UNL1        0.0020
      4 C          61.6353   86.9670   10.0015 C.3     1  UNL1        0.1095
      5 C          61.3625   87.0263    8.5277 C.3     1  UNL1        0.1598
      6 O          61.8417   85.9231    7.6313 O.3     1  UNL1       -0.3508
      7 C          62.5937   84.7608    8.2087 C.3     1  UNL1        0.1598
      8 C          62.8665   84.7016    9.6825 C.3     1  UNL1        0.1091
      9 N          62.3874   85.8047   10.5788 N.3     1  UNL1       -0.1533
     10 C          63.6186   83.5392   10.2599 C.3     1  UNL1        0.0189
     11 C          64.8621   82.9763   10.8817 C.3     1  UNL1        0.0015
     12 C          63.6775   82.0889   10.6381 C.3     1  UNL1        0.0015
     13 S          62.6602   85.7454   12.0526 S.O2    1  UNL1        0.0634
     14 O          61.2863   85.1900   12.2847 O.2     1  UNL1       -0.1528
     15 O          63.9194   86.2175   12.1710 O.2     1  UNL1       -0.1528
     16 C          62.9330   85.6862   13.5264 C.ar    1  UNL1        0.1223
     17 C          62.2051   84.6943   14.3846 C.ar    1  UNL1        0.0222
     18 C          62.4777   84.6349   15.8584 C.ar    1  UNL1        0.0310
     19 C          63.4784   85.5675   16.4741 C.ar    1  UNL1        0.1402
     20 F          63.7511   85.5082   17.9479 F       1  UNL1       -0.2042
     21 C          64.2063   86.5594   15.6159 C.ar    1  UNL1        0.0310
     22 C          63.9336   86.6187   14.1421 C.ar    1  UNL1        0.0222
     23 C          62.4542   88.4713   11.5337 C.3     1  UNL1        0.0867
     24 C          64.3441   92.4200   10.4917 C.3     1  UNL1        0.0230
     25 C          64.6062   91.7928   11.8287 C.3     1  UNL1        0.0914
     26 C          65.4982   92.4817   12.8185 C.3     1  UNL1        0.0921
     27 N          65.7603   91.8544   14.1556 N.3     1  UNL1       -0.2700
     28 C          65.1303   90.5382   14.5029 C.3     1  UNL1        0.0939
     29 C          64.2383   89.8492   13.5132 C.3     1  UNL1        0.1107
     30 N          63.9762   90.4765   12.1761 N.am    1  UNL1       -0.2784
     31 C          63.0842   89.7876   11.1863 C.2     1  UNL1        0.2257
     32 O          62.8221   90.4148    9.8492 O.2     1  UNL1       -0.2749
     33 C          66.6523   92.5434   15.1453 C.3     1  UNL1        0.0726
     34 C          67.7164   92.6729   14.0961 C.3     1  UNL1        0.0186
     35 C          65.5882   92.4139   16.1945 C.3     1  UNL1        0.0186
     36 C          67.5444   93.2324   16.1351 C.3     1  UNL1        0.1516
     37 O          69.0191   93.3263   15.8772 O.3     1  UNL1       -0.3806
     38 H          69.4083   92.4381   15.8987 H       1  UNL1        0.2105
@<TRIPOS>BOND
     1    25    24    1
     2    25    26    1
     3    26    27    1
     4    27    33    1
     5    33    34    1
     6    33    35    1
     7    33    36    1
     8    36    37    1
     9    27    28    1
    10    28    29    1
    11    29    30    1
    12    30    31   am
    13    31    32    2
    14    31    23    1
    15    23     1    1
    16     4     1    1
    17     4     5    1
    18     5     6    1
    19     6     7    1
    20     7     8    1
    21     8    10    1
    22    10    11    1
    23    11    12    1
    24     8     9    1
    25     9    13    1
    26    13    14    2
    27    13    15    2
    28    13    16    1
    29    16    17   ar
    30    17    18   ar
    31    18    19   ar
    32    19    20    1
    33    19    21   ar
    34    21    22   ar
    35     1     2    1
    36     2     3    1
    37    30    25    1
    38     3     1    1
    39     9     4    1
    40    22    16   ar
    41    12    10    1
    42    37    38    1
@<TRIPOS>MOLECULE
*****
 38 42 0 0 0
SMALL
GASTEIGER

@<TRIPOS>ATOM
      1 C          59.3316   94.6828   -1.7019 C.3     1  UNL1        0.0261
      2 C          59.0274   96.0953   -1.2989 C.3     1  UNL1        0.0020
      3 C          58.6858   95.6190   -2.6798 C.3     1  UNL1        0.0020
      4 C          59.9460   94.1758   -0.4308 C.3     1  UNL1        0.1095
      5 C          59.0708   93.6447    0.6655 C.3     1  UNL1        0.1598
      6 O          59.6853   93.1378    1.9366 O.3     1  UNL1       -0.3508
      7 C          61.1749   93.1620    2.1112 C.3     1  UNL1        0.1598
      8 C          62.0500   93.6931    1.0149 C.3     1  UNL1        0.1091
      9 N          61.4356   94.2000   -0.2561 N.3     1  UNL1       -0.1533
     10 C          63.5397   93.7173    1.1895 C.3     1  UNL1        0.0189
     11 C          64.8820   93.0798    0.9856 C.3     1  UNL1        0.0015
     12 C          64.7773   94.3967    1.6961 C.3     1  UNL1        0.0015
     13 S          62.3108   94.7312   -1.3525 S.O2    1  UNL1        0.0634
     14 O          62.2560   96.0969   -0.7346 O.2     1  UNL1       -0.1528
     15 O          62.5492   93.6543   -2.1309 O.2     1  UNL1       -0.1528
     16 C          63.1859   95.2624   -2.4488 C.ar    1  UNL1        0.1223
     17 C          62.7654   95.1165   -3.8813 C.ar    1  UNL1        0.0222
     18 C          63.6405   95.6477   -4.9777 C.ar    1  UNL1        0.0310
     19 C          64.9361   96.3248   -4.6416 C.ar    1  UNL1        0.1402
     20 F          65.8112   96.8559   -5.7380 F       1  UNL1       -0.2042
     21 C          65.3566   96.4706   -3.2091 C.ar    1  UNL1        0.0310
     22 C          64.4815   95.9394   -2.1128 C.ar    1  UNL1        0.0222
     23 C          59.4225   93.4463   -2.5462 C.3     1  UNL1        0.0867
     24 C          57.9583   93.5145   -6.8008 C.3     1  UNL1        0.0230
     25 C          57.2999   92.6170   -5.7953 C.3     1  UNL1        0.0914
     26 C          56.1534   91.7422   -6.2081 C.3     1  UNL1        0.0921
     27 N          55.4950   90.8446   -5.2026 N.3     1  UNL1       -0.2700
     28 C          55.9831   90.8219   -3.7844 C.3     1  UNL1        0.0939
     29 C          57.1295   91.6967   -3.3717 C.3     1  UNL1        0.1107
     30 N          57.7880   92.5943   -4.3772 N.am    1  UNL1       -0.2784
     31 C          58.9344   93.4690   -3.9644 C.2     1  UNL1        0.2257
     32 O          59.5929   94.3666   -4.9699 O.2     1  UNL1       -0.2749
     33 C          54.3486   89.9699   -5.6153 C.3     1  UNL1        0.0726
     34 C          54.4007   90.5531   -6.9963 C.3     1  UNL1        0.0186
     35 C          54.2965   89.3866   -4.2344 C.3     1  UNL1        0.0186
     36 C          53.2021   89.0951   -6.0281 C.3     1  UNL1        0.1516
     37 O          51.8584   89.7012   -6.3060 O.3     1  UNL1       -0.3806
     38 H          51.4942   90.0699   -5.4861 H       1  UNL1        0.2105
@<TRIPOS>BOND
     1    25    24    1
     2    25    26    1
     3    26    27    1
     4    27    33    1
     5    33    34    1
     6    33    35    1
     7    33    36    1
     8    36    37    1
     9    27    28    1
    10    28    29    1
    11    29    30    1
    12    30    31   am
    13    31    32    2
    14    31    23    1
    15    23     1    1
    16     4     1    1
    17     4     5    1
    18     5     6    1
    19     6     7    1
    20     7     8    1
    21     8    10    1
    22    10    11    1
    23    11    12    1
    24     8     9    1
    25     9    13    1
    26    13    14    2
    27    13    15    2
    28    13    16    1
    29    16    17   ar
    30    17    18   ar
    31    18    19   ar
    32    19    20    1
    33    19    21   ar
    34    21    22   ar
    35     1     2    1
    36     2     3    1
    37    30    25    1
    38     3     1    1
    39     9     4    1
    40    22    16   ar
    41    12    10    1
    42    37    38    1
@<TRIPOS>MOLECULE
*****
 38 42 0 0 0
SMALL
GASTEIGER

@<TRIPOS>ATOM
      1 C          63.3676   91.1953   11.4399 C.3     1  UNL1        0.0261
      2 C          64.5157   91.7159   10.6269 C.3     1  UNL1        0.0020
      3 C          63.1775   91.5017    9.9839 C.3     1  UNL1        0.0020
      4 C          64.0371   91.0525   12.7745 C.3     1  UNL1        0.1095
      5 C          63.4625   90.1283   13.8069 C.3     1  UNL1        0.1598
      6 O          64.1321   89.9856   15.1416 O.3     1  UNL1       -0.3508
      7 C          65.3762   90.7670   15.4439 C.3     1  UNL1        0.1598
      8 C          65.9508   91.6912   14.4115 C.3     1  UNL1        0.1091
      9 N          65.2813   91.8339   13.0769 N.3     1  UNL1       -0.1533
     10 C          67.1950   92.4726   14.7139 C.3     1  UNL1        0.0189
     11 C          67.8550   93.7051   15.2574 C.3     1  UNL1        0.0015
     12 C          68.6900   92.5935   14.6941 C.3     1  UNL1        0.0015
     13 S          65.8559   92.7581   12.0446 S.O2    1  UNL1        0.0634
     14 O          65.1000   93.9038   12.6495 O.2     1  UNL1       -0.1528
     15 O          66.6412   91.9590   11.2915 O.2     1  UNL1       -0.1528
     16 C          66.4305   93.6824   11.0123 C.ar    1  UNL1        0.1223
     17 C          66.0712   95.1387   11.0265 C.ar    1  UNL1        0.0222
     18 C          66.6457   96.0630    9.9942 C.ar    1  UNL1        0.0310
     19 C          67.5796   95.5311    8.9478 C.ar    1  UNL1        0.1402
     20 F          68.1541   96.4554    7.9155 F       1  UNL1       -0.2042
     21 C          67.9388   94.0747    8.9336 C.ar    1  UNL1        0.0310
     22 C          67.3643   93.1505    9.9659 C.ar    1  UNL1        0.0222
     23 C          61.9870   90.7243   11.7894 C.3     1  UNL1        0.0867
     24 C          59.9959   87.5482    9.2999 C.3     1  UNL1        0.0230
     25 C          61.0871   87.1750   10.2589 C.3     1  UNL1        0.0914
     26 C          61.5147   85.7430   10.3882 C.3     1  UNL1        0.0921
     27 N          62.6060   85.3698   11.3473 N.3     1  UNL1       -0.2700
     28 C          63.2697   86.4285   12.1771 C.3     1  UNL1        0.0939
     29 C          62.8422   87.8604   12.0479 C.3     1  UNL1        0.1107
     30 N          61.7508   88.2337   11.0888 N.am    1  UNL1       -0.2784
     31 C          61.3233   89.6656   10.9595 C.2     1  UNL1        0.2257
     32 O          60.2320   90.0389   10.0005 O.2     1  UNL1       -0.2749
     33 C          63.0335   83.9378   11.4765 C.3     1  UNL1        0.0726
     34 C          63.4745   83.9401   10.0428 C.3     1  UNL1        0.0186
     35 C          62.5926   83.9356   12.9102 C.3     1  UNL1        0.0186
     36 C          63.4611   82.5058   11.6057 C.3     1  UNL1        0.1516
     37 O          64.9192   82.1627   11.6846 O.3     1  UNL1       -0.3806
     38 H          65.3497   82.3855   10.8444 H       1  UNL1        0.2105
@<TRIPOS>BOND
     1    25    24    1
     2    25    26    1
     3    26    27    1
     4    27    33    1
     5    33    34    1
     6    33    35    1
     7    33    36    1
     8    36    37    1
     9    27    28    1
    10    28    29    1
    11    29    30    1
    12    30    31   am
    13    31    32    2
    14    31    23    1
    15    23     1    1
    16     4     1    1
    17     4     5    1
    18     5     6    1
    19     6     7    1
    20     7     8    1
    21     8    10    1
    22    10    11    1
    23    11    12    1
    24     8     9    1
    25     9    13    1
    26    13    14    2
    27    13    15    2
    28    13    16    1
    29    16    17   ar
    30    17    18   ar
    31    18    19   ar
    32    19    20    1
    33    19    21   ar
    34    21    22   ar
    35     1     2    1
    36     2     3    1
    37    30    25    1
    38     3     1    1
    39     9     4    1
    40    22    16   ar
    41    12    10    1
    42    37    38    1
