@<TRIPOS>MOLECULE
*****
 30 33 0 0 0
SMALL
GASTEIGER

@<TRIPOS>ATOM
      1 C          61.6840   87.2945   10.2259 C.ar    1  UNL1        0.1194
      2 N          60.7260   87.6536    9.1289 N.ar    1  UNL1       -0.2208
      3 C          60.1281   89.0283    9.0756 C.ar    1  UNL1        0.2002
      4 N          60.4882   90.0438   10.1191 N.ar    1  UNL1       -0.2058
      5 C          61.4462   89.6847   11.2161 C.ar    1  UNL1        0.1695
      6 C          62.0441   88.3101   11.2694 C.ar    1  UNL1        0.1835
      7 O          63.0021   87.9509   12.3663 O.3     1  UNL1       -0.5020
      8 H          63.2270   88.5852   13.0182 H       1  UNL1        0.2924
      9 C          64.0755   81.7959   10.4394 C.3     1  UNL1        0.0310
     10 C          63.4776   83.1705   10.3860 C.ar    1  UNL1       -0.0218
     11 C          63.5882   83.9884    9.1334 C.ar    1  UNL1       -0.0042
     12 C          62.9903   85.3630    9.0801 C.ar    1  UNL1        0.0013
     13 C          62.2819   85.9199   10.2792 C.ar    1  UNL1        0.0208
     14 C          62.1713   85.1020   11.5318 C.ar    1  UNL1        0.0013
     15 C          62.7692   83.7274   11.5852 C.ar    1  UNL1       -0.0042
     16 N          61.8063   90.7002   12.2596 N.pl3   1  UNL1       -0.2948
     17 H          61.0985   91.1369   12.7865 H       1  UNL1        0.1537
     18 C          63.2448   91.0504   12.5005 C.ar    1  UNL1        0.0599
     19 C          63.8520   90.8366   13.8554 C.ar    1  UNL1        0.0157
     20 C          65.2905   91.1868   14.0963 C.ar    1  UNL1        0.0085
     21 C          66.1218   91.7508   12.9823 C.ar    1  UNL1        0.0823
     22 C          65.5146   91.9646   11.6275 C.ar    1  UNL1        0.0430
     23 C          64.0760   91.6144   11.3866 C.ar    1  UNL1        0.0712
     24 CL         63.4688   91.8283   10.0317 Cl      1  UNL1       -0.0811
     25 C          66.5733   92.5327   10.7295 C.3     1  UNL1        0.2277
     26 N          67.8348   92.6700   11.5292 N.pl3   1  UNL1       -0.2153
     27 C          67.5558   92.1867   12.9216 C.2     1  UNL1        0.3122
     28 N          68.5383   92.1465   14.0543 N.2     1  UNL1       -0.0993
     29 H          68.6949   93.0164   11.1984 H       1  UNL1        0.2926
     30 H          69.4624   92.4562   13.9156 H       1  UNL1        0.3633
@<TRIPOS>BOND
     1     9    10    1
     2    10    11   ar
     3    11    12   ar
     4    12    13   ar
     5    13     1    1
     6     1     2   ar
     7     2     3   ar
     8     3     4   ar
     9     4     5   ar
    10     5    16    1
    11    16    18    1
    12    18    19   ar
    13    19    20   ar
    14    20    21   ar
    15    21    22   ar
    16    22    23   ar
    17    23    24    1
    18    22    25    1
    19    25    26    1
    20    26    27    1
    21    27    28    2
    22     5     6   ar
    23     6     7    1
    24    13    14   ar
    25    14    15   ar
    26    15    10   ar
    27     6     1   ar
    28    23    18   ar
    29    27    21    1
    30    16    17    1
    31    26    29    1
    32    28    30    1
    33     7     8    1
@<TRIPOS>MOLECULE
*****
 30 33 0 0 0
SMALL
GASTEIGER

@<TRIPOS>ATOM
      1 C          61.7844   86.4916   10.7337 C.ar    1  UNL1        0.1194
      2 N          60.7853   86.5096    9.6150 N.ar    1  UNL1       -0.2208
      3 C          60.0640   87.7798    9.2740 C.ar    1  UNL1        0.2002
      4 N          60.3419   89.0320   10.0515 N.ar    1  UNL1       -0.2058
      5 C          61.3410   89.0141   11.1702 C.ar    1  UNL1        0.1695
      6 C          62.0623   87.7439   11.5112 C.ar    1  UNL1        0.1835
      7 O          63.0614   87.7259   12.6299 O.3     1  UNL1       -0.5020
      8 H          63.2350   88.5081   13.1156 H       1  UNL1        0.2924
      9 C          64.6695   81.4107   12.0980 C.3     1  UNL1        0.0310
     10 C          63.9482   82.6809   11.7569 C.ar    1  UNL1       -0.0218
     11 C          63.9624   83.1965   10.3484 C.ar    1  UNL1       -0.0042
     12 C          63.2411   84.4667   10.0073 C.ar    1  UNL1        0.0013
     13 C          62.5057   85.2214   11.0747 C.ar    1  UNL1        0.0208
     14 C          62.4915   84.7059   12.4833 C.ar    1  UNL1        0.0013
     15 C          63.2127   83.4357   12.8244 C.ar    1  UNL1       -0.0042
     16 N          61.6189   90.2664   11.9478 N.pl3   1  UNL1       -0.2948
     17 H          60.9434   90.6187   12.5713 H       1  UNL1        0.1537
     18 C          62.9259   90.9818   11.7753 C.ar    1  UNL1        0.0599
     19 C          63.3255   91.4986   10.4249 C.ar    1  UNL1        0.0157
     20 C          64.6325   92.2140   10.2524 C.ar    1  UNL1        0.0085
     21 C          65.5400   92.4128   11.4303 C.ar    1  UNL1        0.0823
     22 C          65.1404   91.8961   12.7805 C.ar    1  UNL1        0.0430
     23 C          63.8333   91.1806   12.9530 C.ar    1  UNL1        0.0712
     24 CL         63.4336   90.6638   14.3033 Cl      1  UNL1       -0.0811
     25 C          66.2328   92.2384   13.7497 C.3     1  UNL1        0.2277
     26 N          67.3075   92.9666   12.9985 N.pl3   1  UNL1       -0.2153
     27 C          66.8794   93.0745   11.5649 C.2     1  UNL1        0.3122
     28 N          67.6545   93.7290   10.4601 N.2     1  UNL1       -0.0993
     29 H          68.1466   93.3131   13.3794 H       1  UNL1        0.2926
     30 H          68.5298   94.1384   10.6484 H       1  UNL1        0.3633
@<TRIPOS>BOND
     1     9    10    1
     2    10    11   ar
     3    11    12   ar
     4    12    13   ar
     5    13     1    1
     6     1     2   ar
     7     2     3   ar
     8     3     4   ar
     9     4     5   ar
    10     5    16    1
    11    16    18    1
    12    18    19   ar
    13    19    20   ar
    14    20    21   ar
    15    21    22   ar
    16    22    23   ar
    17    23    24    1
    18    22    25    1
    19    25    26    1
    20    26    27    1
    21    27    28    2
    22     5     6   ar
    23     6     7    1
    24    13    14   ar
    25    14    15   ar
    26    15    10   ar
    27     6     1   ar
    28    23    18   ar
    29    27    21    1
    30    16    17    1
    31    26    29    1
    32    28    30    1
    33     7     8    1
@<TRIPOS>MOLECULE
*****
 30 33 0 0 0
SMALL
GASTEIGER

@<TRIPOS>ATOM
      1 C          66.1666   92.9385   12.2417 C.ar    1  UNL1        0.1194
      2 N          66.9962   92.8854   13.4902 N.ar    1  UNL1       -0.2208
      3 C          66.6574   91.9061   14.5747 C.ar    1  UNL1        0.2002
      4 N          65.4890   90.9798   14.4106 N.ar    1  UNL1       -0.2058
      5 C          64.6594   91.0329   13.1621 C.ar    1  UNL1        0.1695
      6 C          64.9982   92.0122   12.0776 C.ar    1  UNL1        0.1835
      7 O          64.1686   92.0654   10.8290 O.3     1  UNL1       -0.5020
      8 H          63.4388   91.4868   10.7265 H       1  UNL1        0.2924
      9 C          67.5216   96.8560    7.9037 C.3     1  UNL1        0.0310
     10 C          67.1828   95.8766    8.9882 C.ar    1  UNL1       -0.0218
     11 C          67.5723   94.4351    8.8455 C.ar    1  UNL1       -0.0042
     12 C          67.2336   93.4558    9.9299 C.ar    1  UNL1        0.0013
     13 C          66.5053   93.9178   11.1572 C.ar    1  UNL1        0.0208
     14 C          66.1159   95.3594   11.2999 C.ar    1  UNL1        0.0013
     15 C          66.4546   96.3387   10.2155 C.ar    1  UNL1       -0.0042
     16 N          63.4910   90.1066   12.9980 N.pl3   1  UNL1       -0.2948
     17 H          62.6290   90.4543   12.6737 H       1  UNL1        0.1537
     18 C          63.6361   88.6506   13.3281 C.ar    1  UNL1        0.0599
     19 C          64.3333   88.2333   14.5890 C.ar    1  UNL1        0.0157
     20 C          64.4784   86.7773   14.9191 C.ar    1  UNL1        0.0085
     21 C          63.9263   85.7386   13.9882 C.ar    1  UNL1        0.0823
     22 C          63.2291   86.1559   12.7274 C.ar    1  UNL1        0.0430
     23 C          63.0840   87.6120   12.3973 C.ar    1  UNL1        0.0712
     24 CL         62.3869   88.0293   11.1364 Cl      1  UNL1       -0.0811
     25 C          62.7902   84.9150   12.0080 C.3     1  UNL1        0.2277
     26 N          63.2161   83.7309   12.8241 N.pl3   1  UNL1       -0.2153
     27 C          63.9182   84.2398   14.0481 C.2     1  UNL1        0.3122
     28 N          64.5086   83.3978   15.1401 N.2     1  UNL1       -0.0993
     29 H          63.0619   82.7855   12.5965 H       1  UNL1        0.2926
     30 H          64.4529   82.4162   15.0895 H       1  UNL1        0.3633
@<TRIPOS>BOND
     1     9    10    1
     2    10    11   ar
     3    11    12   ar
     4    12    13   ar
     5    13     1    1
     6     1     2   ar
     7     2     3   ar
     8     3     4   ar
     9     4     5   ar
    10     5    16    1
    11    16    18    1
    12    18    19   ar
    13    19    20   ar
    14    20    21   ar
    15    21    22   ar
    16    22    23   ar
    17    23    24    1
    18    22    25    1
    19    25    26    1
    20    26    27    1
    21    27    28    2
    22     5     6   ar
    23     6     7    1
    24    13    14   ar
    25    14    15   ar
    26    15    10   ar
    27     6     1   ar
    28    23    18   ar
    29    27    21    1
    30    16    17    1
    31    26    29    1
    32    28    30    1
    33     7     8    1
@<TRIPOS>MOLECULE
*****
 30 33 0 0 0
SMALL
GASTEIGER

@<TRIPOS>ATOM
      1 C          63.7790   84.6337   13.1396 C.ar    1  UNL1        0.1194
      2 N          64.4820   84.5555   14.4623 N.ar    1  UNL1       -0.2208
      3 C          64.7052   85.8010   15.2678 C.ar    1  UNL1        0.2002
      4 N          64.2255   87.1248   14.7506 N.ar    1  UNL1       -0.2058
      5 C          63.5226   87.2030   13.4278 C.ar    1  UNL1        0.1695
      6 C          63.2993   85.9575   12.6223 C.ar    1  UNL1        0.1835
      7 O          62.5964   86.0356   11.2995 O.3     1  UNL1       -0.5020
      8 H          62.2968   86.8625   10.9764 H       1  UNL1        0.2924
      9 C          62.8860   79.6516    9.9176 C.3     1  UNL1        0.0310
     10 C          63.1093   80.8971   10.7231 C.ar    1  UNL1       -0.0218
     11 C          63.9863   81.9897   10.1873 C.ar    1  UNL1       -0.0042
     12 C          64.2096   83.2352   10.9928 C.ar    1  UNL1        0.0013
     13 C          63.5558   83.3882   12.3341 C.ar    1  UNL1        0.0208
     14 C          62.6787   82.2957   12.8699 C.ar    1  UNL1        0.0013
     15 C          62.4555   81.0502   12.0644 C.ar    1  UNL1       -0.0042
     16 N          63.0429   88.5268   12.9105 N.pl3   1  UNL1       -0.2948
     17 H          62.1694   88.5924   12.4611 H       1  UNL1        0.1537
     18 C          63.8940   89.7505   13.0780 C.ar    1  UNL1        0.0599
     19 C          64.6584   89.9639   14.3509 C.ar    1  UNL1        0.0157
     20 C          65.5095   91.1876   14.5184 C.ar    1  UNL1        0.0085
     21 C          65.5962   92.1980   13.4130 C.ar    1  UNL1        0.0823
     22 C          64.8318   91.9846   12.1403 C.ar    1  UNL1        0.0430
     23 C          63.9807   90.7608   11.9727 C.ar    1  UNL1        0.0712
     24 CL         63.2162   90.5474   10.6999 Cl      1  UNL1       -0.0811
     25 C          65.1106   93.1453   11.2320 C.3     1  UNL1        0.2277
     26 N          66.0472   94.0761   11.9434 N.pl3   1  UNL1       -0.2153
     27 C          66.3474   93.4906   13.2914 C.2     1  UNL1        0.3122
     28 N          67.2417   94.0922   14.3347 N.2     1  UNL1       -0.0993
     29 H          66.4026   94.9226   11.5881 H       1  UNL1        0.2926
     30 H          67.6936   94.9493   14.1608 H       1  UNL1        0.3633
@<TRIPOS>BOND
     1     9    10    1
     2    10    11   ar
     3    11    12   ar
     4    12    13   ar
     5    13     1    1
     6     1     2   ar
     7     2     3   ar
     8     3     4   ar
     9     4     5   ar
    10     5    16    1
    11    16    18    1
    12    18    19   ar
    13    19    20   ar
    14    20    21   ar
    15    21    22   ar
    16    22    23   ar
    17    23    24    1
    18    22    25    1
    19    25    26    1
    20    26    27    1
    21    27    28    2
    22     5     6   ar
    23     6     7    1
    24    13    14   ar
    25    14    15   ar
    26    15    10   ar
    27     6     1   ar
    28    23    18   ar
    29    27    21    1
    30    16    17    1
    31    26    29    1
    32    28    30    1
    33     7     8    1
@<TRIPOS>MOLECULE
*****
 30 33 0 0 0
SMALL
GASTEIGER

@<TRIPOS>ATOM
      1 C          65.3189   91.9599   12.3320 C.ar    1  UNL1        0.1194
      2 N          66.0496   91.5996   13.5915 N.ar    1  UNL1       -0.2208
      3 C          65.4166   90.6730   14.5868 C.ar    1  UNL1        0.2002
      4 N          64.0529   90.1067   14.3227 N.ar    1  UNL1       -0.2058
      5 C          63.3223   90.4670   13.0632 C.ar    1  UNL1        0.1695
      6 C          63.9553   91.3936   12.0679 C.ar    1  UNL1        0.1835
      7 O          63.2247   91.7540   10.8084 O.3     1  UNL1       -0.5020
      8 H          62.3729   91.4002   10.6433 H       1  UNL1        0.2924
      9 C          67.8509   95.6664    8.3507 C.3     1  UNL1        0.0310
     10 C          67.2179   94.7398    9.3460 C.ar    1  UNL1       -0.0218
     11 C          66.1959   95.2615   10.3121 C.ar    1  UNL1       -0.0042
     12 C          65.5629   94.3349   11.3074 C.ar    1  UNL1        0.0013
     13 C          65.9519   92.8866   11.3367 C.ar    1  UNL1        0.0208
     14 C          66.9739   92.3648   10.3707 C.ar    1  UNL1        0.0013
     15 C          67.6069   93.2914    9.3754 C.ar    1  UNL1       -0.0042
     16 N          61.9586   89.9007   12.7990 N.pl3   1  UNL1       -0.2948
     17 H          61.2117   90.1132   13.4041 H       1  UNL1        0.1537
     18 C          61.7331   89.0105   11.6130 C.ar    1  UNL1        0.0599
     19 C          62.5875   87.7935   11.4154 C.ar    1  UNL1        0.0157
     20 C          62.3619   86.9034   10.2293 C.ar    1  UNL1        0.0085
     21 C          61.2819   87.2303    9.2408 C.ar    1  UNL1        0.0823
     22 C          60.4276   88.4472    9.4385 C.ar    1  UNL1        0.0430
     23 C          60.6531   89.3374   10.6246 C.ar    1  UNL1        0.0712
     24 CL         59.7988   90.5544   10.8223 Cl      1  UNL1       -0.0811
     25 C          59.4467   88.5139    8.3056 C.3     1  UNL1        0.2277
     26 N          59.6949   87.3383    7.4078 N.pl3   1  UNL1       -0.2153
     27 C          60.8291   86.5449    7.9858 C.2     1  UNL1        0.3122
     28 N          61.4087   85.2870    7.4099 N.2     1  UNL1       -0.0993
     29 H          59.2002   87.1248    6.5838 H       1  UNL1        0.2926
     30 H          61.0414   84.9121    6.5769 H       1  UNL1        0.3633
@<TRIPOS>BOND
     1     9    10    1
     2    10    11   ar
     3    11    12   ar
     4    12    13   ar
     5    13     1    1
     6     1     2   ar
     7     2     3   ar
     8     3     4   ar
     9     4     5   ar
    10     5    16    1
    11    16    18    1
    12    18    19   ar
    13    19    20   ar
    14    20    21   ar
    15    21    22   ar
    16    22    23   ar
    17    23    24    1
    18    22    25    1
    19    25    26    1
    20    26    27    1
    21    27    28    2
    22     5     6   ar
    23     6     7    1
    24    13    14   ar
    25    14    15   ar
    26    15    10   ar
    27     6     1   ar
    28    23    18   ar
    29    27    21    1
    30    16    17    1
    31    26    29    1
    32    28    30    1
    33     7     8    1
@<TRIPOS>MOLECULE
*****
 30 33 0 0 0
SMALL
GASTEIGER

@<TRIPOS>ATOM
      1 C          63.8373   85.2107   13.1450 C.ar    1  UNL1        0.1194
      2 N          64.7589   85.2281   14.3283 N.ar    1  UNL1       -0.2208
      3 C          64.9824   86.5031   15.0862 C.ar    1  UNL1        0.2002
      4 N          64.2843   87.7607   14.6608 N.ar    1  UNL1       -0.2058
      5 C          63.3627   87.7434   13.4775 C.ar    1  UNL1        0.1695
      6 C          63.1392   86.4684   12.7196 C.ar    1  UNL1        0.1835
      7 O          62.2176   86.4509   11.5362 O.3     1  UNL1       -0.5020
      8 H          61.7815   87.2365   11.2704 H       1  UNL1        0.2924
      9 C          62.9433   80.1107   10.1134 C.3     1  UNL1        0.0310
     10 C          63.1668   81.3857   10.8713 C.ar    1  UNL1       -0.0218
     11 C          62.4579   81.6189   12.1724 C.ar    1  UNL1       -0.0042
     12 C          62.6814   82.8939   12.9303 C.ar    1  UNL1        0.0013
     13 C          63.6138   83.9357   12.3871 C.ar    1  UNL1        0.0208
     14 C          64.3227   83.7025   11.0860 C.ar    1  UNL1        0.0013
     15 C          64.0993   82.4276   10.3280 C.ar    1  UNL1       -0.0042
     16 N          62.6646   89.0010   13.0520 N.pl3   1  UNL1       -0.2948
     17 H          61.6911   89.0879   13.1705 H       1  UNL1        0.1537
     18 C          63.4497   90.1263   12.4459 C.ar    1  UNL1        0.0599
     19 C          63.3181   90.4297   10.9828 C.ar    1  UNL1        0.0157
     20 C          64.1032   91.5551   10.3768 C.ar    1  UNL1        0.0085
     21 C          65.0198   92.3769   11.2338 C.ar    1  UNL1        0.0823
     22 C          65.1513   92.0735   12.6968 C.ar    1  UNL1        0.0430
     23 C          64.3662   90.9481   13.3030 C.ar    1  UNL1        0.0712
     24 CL         64.4977   90.6447   14.7661 Cl      1  UNL1       -0.0811
     25 C          66.1263   93.0489   13.2867 C.3     1  UNL1        0.2277
     26 N          66.5974   93.9551   12.1883 N.pl3   1  UNL1       -0.2153
     27 C          65.9135   93.5399   10.9195 C.2     1  UNL1        0.3122
     28 N          66.0921   94.1759    9.5728 N.2     1  UNL1       -0.0993
     29 H          67.2422   94.6930   12.2834 H       1  UNL1        0.2926
     30 H          66.7048   94.9390    9.4661 H       1  UNL1        0.3633
@<TRIPOS>BOND
     1     9    10    1
     2    10    11   ar
     3    11    12   ar
     4    12    13   ar
     5    13     1    1
     6     1     2   ar
     7     2     3   ar
     8     3     4   ar
     9     4     5   ar
    10     5    16    1
    11    16    18    1
    12    18    19   ar
    13    19    20   ar
    14    20    21   ar
    15    21    22   ar
    16    22    23   ar
    17    23    24    1
    18    22    25    1
    19    25    26    1
    20    26    27    1
    21    27    28    2
    22     5     6   ar
    23     6     7    1
    24    13    14   ar
    25    14    15   ar
    26    15    10   ar
    27     6     1   ar
    28    23    18   ar
    29    27    21    1
    30    16    17    1
    31    26    29    1
    32    28    30    1
    33     7     8    1
@<TRIPOS>MOLECULE
*****
 30 33 0 0 0
SMALL
GASTEIGER

@<TRIPOS>ATOM
      1 C          66.5148   92.9651   12.1964 C.ar    1  UNL1        0.1194
      2 N          67.6329   92.6034   13.1287 N.ar    1  UNL1       -0.2208
      3 C          67.3933   91.6310   14.2454 C.ar    1  UNL1        0.2002
      4 N          66.0357   91.0204   14.4299 N.ar    1  UNL1       -0.2058
      5 C          64.9176   91.3821   13.4976 C.ar    1  UNL1        0.1695
      6 C          65.1572   92.3545   12.3809 C.ar    1  UNL1        0.1835
      7 O          64.0393   92.7163   11.4486 O.3     1  UNL1       -0.5020
      8 H          63.1912   92.3349   11.5638 H       1  UNL1        0.2924
      9 C          67.4732   96.8546    7.7295 C.3     1  UNL1        0.0310
     10 C          67.2336   95.8823    8.8462 C.ar    1  UNL1       -0.0218
     11 C          67.6713   94.4546    8.7044 C.ar    1  UNL1       -0.0042
     12 C          67.4317   93.4822    9.8211 C.ar    1  UNL1        0.0013
     13 C          66.7544   93.9375   11.0797 C.ar    1  UNL1        0.0208
     14 C          66.3167   95.3652   11.2215 C.ar    1  UNL1        0.0013
     15 C          66.5563   96.3375   10.1049 C.ar    1  UNL1       -0.0042
     16 N          63.5600   90.7715   13.6821 N.pl3   1  UNL1       -0.2948
     17 H          62.9681   91.0949   14.3993 H       1  UNL1        0.1537
     18 C          63.1041   89.6682   12.7739 C.ar    1  UNL1        0.0599
     19 C          62.3209   89.9913   11.5360 C.ar    1  UNL1        0.0157
     20 C          61.8651   88.8880   10.6278 C.ar    1  UNL1        0.0085
     21 C          62.1924   87.4616   10.9574 C.ar    1  UNL1        0.0823
     22 C          62.9756   87.1387   12.1952 C.ar    1  UNL1        0.0430
     23 C          63.4315   88.2420   13.1035 C.ar    1  UNL1        0.0712
     24 CL         64.2147   87.9191   14.3414 Cl      1  UNL1       -0.0811
     25 C          63.1471   85.6499   12.2599 C.3     1  UNL1        0.2277
     26 N          62.4699   85.0528   11.0622 N.pl3   1  UNL1       -0.2153
     27 C          61.8798   86.1725   10.2571 C.2     1  UNL1        0.3122
     28 N          61.1120   86.0284    8.9766 N.2     1  UNL1       -0.0993
     29 H          62.4212   84.0943   10.8429 H       1  UNL1        0.2926
     30 H          60.9575   85.1349    8.5932 H       1  UNL1        0.3633
@<TRIPOS>BOND
     1     9    10    1
     2    10    11   ar
     3    11    12   ar
     4    12    13   ar
     5    13     1    1
     6     1     2   ar
     7     2     3   ar
     8     3     4   ar
     9     4     5   ar
    10     5    16    1
    11    16    18    1
    12    18    19   ar
    13    19    20   ar
    14    20    21   ar
    15    21    22   ar
    16    22    23   ar
    17    23    24    1
    18    22    25    1
    19    25    26    1
    20    26    27    1
    21    27    28    2
    22     5     6   ar
    23     6     7    1
    24    13    14   ar
    25    14    15   ar
    26    15    10   ar
    27     6     1   ar
    28    23    18   ar
    29    27    21    1
    30    16    17    1
    31    26    29    1
    32    28    30    1
    33     7     8    1
@<TRIPOS>MOLECULE
*****
 30 33 0 0 0
SMALL
GASTEIGER

@<TRIPOS>ATOM
      1 C          66.4428   92.9590   12.2367 C.ar    1  UNL1        0.1194
      2 N          67.5150   92.6317   13.2332 N.ar    1  UNL1       -0.2208
      3 C          67.2384   91.6574   14.3397 C.ar    1  UNL1        0.2002
      4 N          65.8895   91.0105   14.4496 N.ar    1  UNL1       -0.2058
      5 C          64.8173   91.3379   13.4531 C.ar    1  UNL1        0.1695
      6 C          65.0939   92.3121   12.3466 C.ar    1  UNL1        0.1835
      7 O          64.0218   92.6395   11.3500 O.3     1  UNL1       -0.5020
      8 H          63.1791   92.2355   11.4187 H       1  UNL1        0.2924
      9 C          67.5494   96.8560    7.8107 C.3     1  UNL1        0.0310
     10 C          67.2727   95.8817    8.9171 C.ar    1  UNL1       -0.0218
     11 C          66.6466   96.3561   10.1950 C.ar    1  UNL1       -0.0042
     12 C          66.3700   95.3819   11.3015 C.ar    1  UNL1        0.0013
     13 C          66.7194   93.9333   11.1302 C.ar    1  UNL1        0.0208
     14 C          67.3455   93.4589    9.8523 C.ar    1  UNL1        0.0013
     15 C          67.6221   94.4330    8.7458 C.ar    1  UNL1       -0.0042
     16 N          63.4684   90.6910   13.5630 N.pl3   1  UNL1       -0.2948
     17 H          62.7294   91.1660   14.0074 H       1  UNL1        0.1537
     18 C          63.2455   89.3204   12.9958 C.ar    1  UNL1        0.0599
     19 C          63.8296   88.1209   13.6814 C.ar    1  UNL1        0.0157
     20 C          63.6067   86.7503   13.1143 C.ar    1  UNL1        0.0085
     21 C          62.7996   86.5792   11.8614 C.ar    1  UNL1        0.0823
     22 C          62.2155   87.7786   11.1759 C.ar    1  UNL1        0.0430
     23 C          62.4384   89.1493   11.7431 C.ar    1  UNL1        0.0712
     24 CL         61.8543   90.3488   11.0575 Cl      1  UNL1       -0.0811
     25 C          61.4694   87.3027    9.9647 C.3     1  UNL1        0.2277
     26 N          61.5924   85.8092    9.9018 N.pl3   1  UNL1       -0.2153
     27 C          62.4145   85.3619   11.0740 C.2     1  UNL1        0.3122
     28 N          62.7863   83.9461   11.4013 N.2     1  UNL1       -0.0993
     29 H          61.2021   85.2250    9.2121 H       1  UNL1        0.2926
     30 H          62.4842   83.2109   10.8203 H       1  UNL1        0.3633
@<TRIPOS>BOND
     1     9    10    1
     2    10    11   ar
     3    11    12   ar
     4    12    13   ar
     5    13     1    1
     6     1     2   ar
     7     2     3   ar
     8     3     4   ar
     9     4     5   ar
    10     5    16    1
    11    16    18    1
    12    18    19   ar
    13    19    20   ar
    14    20    21   ar
    15    21    22   ar
    16    22    23   ar
    17    23    24    1
    18    22    25    1
    19    25    26    1
    20    26    27    1
    21    27    28    2
    22     5     6   ar
    23     6     7    1
    24    13    14   ar
    25    14    15   ar
    26    15    10   ar
    27     6     1   ar
    28    23    18   ar
    29    27    21    1
    30    16    17    1
    31    26    29    1
    32    28    30    1
    33     7     8    1
@<TRIPOS>MOLECULE
*****
 30 33 0 0 0
SMALL
GASTEIGER

@<TRIPOS>ATOM
      1 C          62.4495   86.2104   10.3874 C.ar    1  UNL1        0.1194
      2 N          62.9989   85.2902   11.4368 N.ar    1  UNL1       -0.2208
      3 C          63.2908   85.8113   12.8128 C.ar    1  UNL1        0.2002
      4 N          63.0331   87.2524   13.1393 N.ar    1  UNL1       -0.2058
      5 C          62.4837   88.1726   12.0899 C.ar    1  UNL1        0.1695
      6 C          62.1919   87.6516   10.7139 C.ar    1  UNL1        0.1835
      7 O          61.6424   88.5717    9.6644 O.3     1  UNL1       -0.5020
      8 H          61.4814   89.4719    9.8683 H       1  UNL1        0.2924
      9 C          61.2821   84.1263    4.8834 C.3     1  UNL1        0.0310
     10 C          61.5739   84.6473    6.2593 C.ar    1  UNL1       -0.0218
     11 C          62.9476   84.4965    6.8427 C.ar    1  UNL1       -0.0042
     12 C          63.2394   85.0175    8.2187 C.ar    1  UNL1        0.0013
     13 C          62.1577   85.6894    9.0114 C.ar    1  UNL1        0.0208
     14 C          60.7840   85.8402    8.4280 C.ar    1  UNL1        0.0013
     15 C          60.4921   85.3192    7.0521 C.ar    1  UNL1       -0.0042
     16 N          62.2260   89.6138   12.4164 N.pl3   1  UNL1       -0.2948
     17 H          61.3470   89.8905   12.7628 H       1  UNL1        0.1537
     18 C          63.3077   90.6334   12.2151 C.ar    1  UNL1        0.0599
     19 C          63.5286   91.2345   10.8587 C.ar    1  UNL1        0.0157
     20 C          64.6103   92.2541   10.6574 C.ar    1  UNL1        0.0085
     21 C          65.4709   92.6725   11.8125 C.ar    1  UNL1        0.0823
     22 C          65.2499   92.0714   13.1689 C.ar    1  UNL1        0.0430
     23 C          64.1683   91.0518   13.3702 C.ar    1  UNL1        0.0712
     24 CL         63.9472   90.4507   14.7266 Cl      1  UNL1       -0.0811
     25 C          66.2481   92.6753   14.1117 C.3     1  UNL1        0.2277
     26 N          67.0860   93.6496   13.3381 N.pl3   1  UNL1       -0.2153
     27 C          66.6057   93.6479   11.9171 C.2     1  UNL1        0.3122
     28 N          67.1624   94.4762   10.7972 N.2     1  UNL1       -0.0993
     29 H          67.8219   94.1945   13.6995 H       1  UNL1        0.2926
     30 H          67.9125   95.0912   10.9657 H       1  UNL1        0.3633
@<TRIPOS>BOND
     1     9    10    1
     2    10    11   ar
     3    11    12   ar
     4    12    13   ar
     5    13     1    1
     6     1     2   ar
     7     2     3   ar
     8     3     4   ar
     9     4     5   ar
    10     5    16    1
    11    16    18    1
    12    18    19   ar
    13    19    20   ar
    14    20    21   ar
    15    21    22   ar
    16    22    23   ar
    17    23    24    1
    18    22    25    1
    19    25    26    1
    20    26    27    1
    21    27    28    2
    22     5     6   ar
    23     6     7    1
    24    13    14   ar
    25    14    15   ar
    26    15    10   ar
    27     6     1   ar
    28    23    18   ar
    29    27    21    1
    30    16    17    1
    31    26    29    1
    32    28    30    1
    33     7     8    1
