@<TRIPOS>MOLECULE
*****
 27 30 0 0 0
SMALL
GASTEIGER

@<TRIPOS>ATOM
      1 C          65.4559   91.6647   14.6031 C.ar    1  UNL1        0.0534
      2 C          64.6600   90.5463   15.2079 C.ar    1  UNL1        0.0045
      3 C          63.6811   89.7820   14.3666 C.ar    1  UNL1        0.0001
      4 C          63.4982   90.1361   12.9206 C.ar    1  UNL1       -0.0002
      5 C          62.5193   89.3718   12.0793 C.ar    1  UNL1       -0.0017
      6 C          62.3364   89.7258   10.6333 C.ar    1  UNL1        0.0071
      7 C          63.1323   90.8442   10.0284 C.ar    1  UNL1       -0.0017
      8 C          64.1111   91.6085   10.8697 C.ar    1  UNL1       -0.0002
      9 C          64.2941   91.2544   12.3158 C.ar    1  UNL1        0.0001
     10 C          65.2729   92.0187   13.1570 C.ar    1  UNL1        0.0045
     11 C          61.3575   88.9615    9.7920 C.3     1  UNL1        0.1429
     12 O          61.0587   90.3059    9.1979 O.3     1  UNL1       -0.3770
     13 C          60.3162   88.4782    8.8266 C.ar    1  UNL1        0.0859
     14 C          59.3615   88.9118    7.7540 C.ar    1  UNL1        0.1160
     15 N          58.6313   87.6964    7.2644 N.ar    1  UNL1       -0.2226
     16 C          59.1348   86.5117    8.0345 C.ar    1  UNL1        0.1784
     17 N          60.1762   86.9949    8.9999 N.ar    1  UNL1       -0.3102
     18 C          61.1309   86.5614   10.0725 C.3     1  UNL1        0.1102
     19 C          61.8610   87.7768   10.5621 C.3     1  UNL1        0.0521
     20 C          62.5472   86.8036   11.4743 C.3     1  UNL1        0.0050
     21 C          62.7542   88.4242   11.3403 C.3     1  UNL1        0.0050
     22 H          60.3750   90.2134    8.5160 H       1  UNL1        0.2112
     23 C          68.7421   93.5919   15.7148 C.3     1  UNL1        0.1109
     24 N          67.7633   92.8277   14.8736 N.am    1  UNL1       -0.2992
     25 C          66.4347   92.4290   15.4444 C.2     1  UNL1        0.2459
     26 O          66.0850   92.7946   16.8564 O.2     1  UNL1       -0.2701
     27 H          67.9929   92.5877   13.9468 H       1  UNL1        0.1498
@<TRIPOS>BOND
     1    23    24    1
     2    24    25   am
     3    25    26    2
     4    25     1    1
     5     1     2   ar
     6     2     3   ar
     7     3     4   ar
     8     4     5   ar
     9     5     6   ar
    10     6    11    1
    11    11    12    1
    12    11    13    1
    13    13    14   ar
    14    14    15   ar
    15    15    16   ar
    16    16    17   ar
    17    17    18    1
    18    18    19    1
    19    19    20    1
    20    19    21    1
    21     6     7   ar
    22     7     8   ar
    23     8     9   ar
    24     9    10   ar
    25    10     1   ar
    26     9     4   ar
    27    19    11    1
    28    17    13   ar
    29    24    27    1
    30    12    22    1
@<TRIPOS>MOLECULE
*****
 27 30 0 0 0
SMALL
GASTEIGER

@<TRIPOS>ATOM
      1 C          59.4752   88.9246    7.1676 C.ar    1  UNL1        0.0534
      2 C          59.0853   87.4976    6.9192 C.ar    1  UNL1        0.0045
      3 C          59.6233   86.4090    7.7998 C.ar    1  UNL1        0.0001
      4 C          60.5511   86.7473    8.9287 C.ar    1  UNL1       -0.0002
      5 C          61.0891   85.6586    9.8093 C.ar    1  UNL1       -0.0017
      6 C          62.0169   85.9969   10.9383 C.ar    1  UNL1        0.0071
      7 C          62.4068   87.4240   11.1867 C.ar    1  UNL1       -0.0017
      8 C          61.8689   88.5126   10.3061 C.ar    1  UNL1       -0.0002
      9 C          60.9410   88.1742    9.1771 C.ar    1  UNL1        0.0001
     10 C          60.4030   89.2629    8.2965 C.ar    1  UNL1        0.0045
     11 C          62.5549   84.9083   11.8189 C.3     1  UNL1        0.1429
     12 O          61.8352   85.6487   12.9068 O.3     1  UNL1       -0.3770
     13 C          62.9424   83.9744   12.9269 C.ar    1  UNL1        0.0859
     14 C          62.8066   83.7142   14.3979 C.ar    1  UNL1        0.1160
     15 N          63.5694   82.4634   14.7197 N.ar    1  UNL1       -0.2226
     16 C          64.1766   81.9506   13.4477 C.ar    1  UNL1        0.1784
     17 N          63.7891   82.8844   12.3396 N.ar    1  UNL1       -0.3102
     18 C          63.9248   83.1446   10.8686 C.3     1  UNL1        0.1102
     19 C          63.1621   84.3954   10.5468 C.3     1  UNL1        0.0521
     20 C          63.6303   84.1325    9.1462 C.3     1  UNL1        0.0050
     21 C          62.6992   85.3548    9.7174 C.3     1  UNL1        0.0050
     22 H          61.9638   85.1884   13.7509 H       1  UNL1        0.2112
     23 C          59.3425   92.0273    4.6967 C.3     1  UNL1        0.1109
     24 N          59.8805   90.9387    5.5773 N.am    1  UNL1       -0.2992
     25 C          58.9372   90.0132    6.2870 C.2     1  UNL1        0.2459
     26 O          57.4560   90.1765    6.1161 O.2     1  UNL1       -0.2701
     27 H          60.8527   90.8315    5.6894 H       1  UNL1        0.1498
@<TRIPOS>BOND
     1    23    24    1
     2    24    25   am
     3    25    26    2
     4    25     1    1
     5     1     2   ar
     6     2     3   ar
     7     3     4   ar
     8     4     5   ar
     9     5     6   ar
    10     6    11    1
    11    11    12    1
    12    11    13    1
    13    13    14   ar
    14    14    15   ar
    15    15    16   ar
    16    16    17   ar
    17    17    18    1
    18    18    19    1
    19    19    20    1
    20    19    21    1
    21     6     7   ar
    22     7     8   ar
    23     8     9   ar
    24     9    10   ar
    25    10     1   ar
    26     9     4   ar
    27    19    11    1
    28    17    13   ar
    29    24    27    1
    30    12    22    1
@<TRIPOS>MOLECULE
*****
 27 30 0 0 0
SMALL
GASTEIGER

@<TRIPOS>ATOM
      1 C          61.4049   86.5344    8.9296 C.ar    1  UNL1        0.0534
      2 C          61.9729   85.7358   10.0651 C.ar    1  UNL1        0.0045
      3 C          62.5649   86.4360   11.2523 C.ar    1  UNL1        0.0001
      4 C          62.5888   87.9349   11.3039 C.ar    1  UNL1       -0.0002
      5 C          63.1808   88.6351   12.4910 C.ar    1  UNL1       -0.0017
      6 C          63.2048   90.1340   12.5426 C.ar    1  UNL1        0.0071
      7 C          62.6368   90.9327   11.4070 C.ar    1  UNL1       -0.0017
      8 C          62.0449   90.2325   10.2199 C.ar    1  UNL1       -0.0002
      9 C          62.0209   88.7335   10.1683 C.ar    1  UNL1        0.0001
     10 C          61.4289   88.0333    8.9812 C.ar    1  UNL1        0.0045
     11 C          63.7967   90.8342   13.7297 C.3     1  UNL1        0.1429
     12 O          62.7881   90.0385   14.5039 O.3     1  UNL1       -0.3770
     13 C          64.1779   91.3681   15.0786 C.ar    1  UNL1        0.0859
     14 C          63.8665   91.2967   16.5442 C.ar    1  UNL1        0.1160
     15 N          64.7945   92.2319   17.2613 N.ar    1  UNL1       -0.2226
     16 C          65.6793   92.8812   16.2390 C.ar    1  UNL1        0.1784
     17 N          65.2983   92.3474   14.8900 N.ar    1  UNL1       -0.3102
     18 C          65.6096   92.4188   13.4244 C.3     1  UNL1        0.1102
     19 C          64.6816   91.4836   12.7073 C.3     1  UNL1        0.0521
     20 C          65.4041   91.9582   11.4814 C.3     1  UNL1        0.0050
     21 C          64.1792   90.8766   11.6111 C.3     1  UNL1        0.0050
     22 H          62.8690   90.2452   15.4481 H       1  UNL1        0.2112
     23 C          61.0739   84.2298    5.7157 C.3     1  UNL1        0.1109
     24 N          61.6659   84.9301    6.9028 N.am    1  UNL1       -0.2992
     25 C          60.8130   85.8342    7.7425 C.2     1  UNL1        0.2459
     26 O          59.3681   86.0381    7.3950 O.2     1  UNL1       -0.2701
     27 H          62.6142   84.7962    7.1309 H       1  UNL1        0.1498
@<TRIPOS>BOND
     1    23    24    1
     2    24    25   am
     3    25    26    2
     4    25     1    1
     5     1     2   ar
     6     2     3   ar
     7     3     4   ar
     8     4     5   ar
     9     5     6   ar
    10     6    11    1
    11    11    12    1
    12    11    13    1
    13    13    14   ar
    14    14    15   ar
    15    15    16   ar
    16    16    17   ar
    17    17    18    1
    18    18    19    1
    19    19    20    1
    20    19    21    1
    21     6     7   ar
    22     7     8   ar
    23     8     9   ar
    24     9    10   ar
    25    10     1   ar
    26     9     4   ar
    27    19    11    1
    28    17    13   ar
    29    24    27    1
    30    12    22    1
@<TRIPOS>MOLECULE
*****
 27 30 0 0 0
SMALL
GASTEIGER

@<TRIPOS>ATOM
      1 C          64.2567   89.7132   13.5716 C.ar    1  UNL1        0.0534
      2 C          64.8137   88.9301   14.7233 C.ar    1  UNL1        0.0045
      3 C          64.6004   87.4471   14.7950 C.ar    1  UNL1        0.0001
      4 C          63.8300   86.7471   13.7150 C.ar    1  UNL1       -0.0002
      5 C          63.6167   85.2641   13.7867 C.ar    1  UNL1       -0.0017
      6 C          62.8463   84.5641   12.7067 C.ar    1  UNL1        0.0071
      7 C          62.2891   85.3472   11.5549 C.ar    1  UNL1       -0.0017
      8 C          62.5025   86.8302   11.4832 C.ar    1  UNL1       -0.0002
      9 C          63.2729   87.5302   12.5633 C.ar    1  UNL1        0.0001
     10 C          63.4863   89.0132   12.4916 C.ar    1  UNL1        0.0045
     11 C          62.6329   83.0811   12.7784 C.3     1  UNL1        0.1429
     12 O          61.9763   83.3975   14.0893 O.3     1  UNL1       -0.3770
     13 C          62.2823   81.6643   13.1242 C.ar    1  UNL1        0.0859
     14 C          61.6323   80.7925   14.1573 C.ar    1  UNL1        0.1160
     15 N          61.7150   79.3717   13.6836 N.ar    1  UNL1       -0.2226
     16 C          62.4163   79.3653   12.3577 C.ar    1  UNL1        0.1784
     17 N          62.7669   80.7822   12.0119 N.ar    1  UNL1       -0.3102
     18 C          63.4170   81.6539   10.9787 C.3     1  UNL1        0.1102
     19 C          63.3342   83.0747   11.4525 C.3     1  UNL1        0.0521
     20 C          64.0494   83.3786   10.1694 C.3     1  UNL1        0.0050
     21 C          63.5476   84.4035   11.3462 C.3     1  UNL1        0.0050
     22 H          61.6619   82.5769   14.4999 H       1  UNL1        0.2112
     23 C          65.4485   93.2723   12.2825 C.3     1  UNL1        0.1109
     24 N          65.2351   91.7893   12.3542 N.am    1  UNL1       -0.2992
     25 C          64.4700   91.1962   13.4999 C.2     1  UNL1        0.2459
     26 O          63.9182   92.0861   14.5739 O.2     1  UNL1       -0.2701
     27 H          65.5973   91.2052   11.6493 H       1  UNL1        0.1498
@<TRIPOS>BOND
     1    23    24    1
     2    24    25   am
     3    25    26    2
     4    25     1    1
     5     1     2   ar
     6     2     3   ar
     7     3     4   ar
     8     4     5   ar
     9     5     6   ar
    10     6    11    1
    11    11    12    1
    12    11    13    1
    13    13    14   ar
    14    14    15   ar
    15    15    16   ar
    16    16    17   ar
    17    17    18    1
    18    18    19    1
    19    19    20    1
    20    19    21    1
    21     6     7   ar
    22     7     8   ar
    23     8     9   ar
    24     9    10   ar
    25    10     1   ar
    26     9     4   ar
    27    19    11    1
    28    17    13   ar
    29    24    27    1
    30    12    22    1
@<TRIPOS>MOLECULE
*****
 27 30 0 0 0
SMALL
GASTEIGER

@<TRIPOS>ATOM
      1 C          59.8910   91.4109    4.4887 C.ar    1  UNL1        0.0534
      2 C          59.0912   92.4235    3.7240 C.ar    1  UNL1        0.0045
      3 C          59.7445   93.2365    2.6460 C.ar    1  UNL1        0.0001
      4 C          61.1977   93.0369    2.3326 C.ar    1  UNL1       -0.0002
      5 C          61.8511   93.8499    1.2545 C.ar    1  UNL1       -0.0017
      6 C          63.3043   93.6502    0.9412 C.ar    1  UNL1        0.0071
      7 C          64.1042   92.6375    1.7058 C.ar    1  UNL1       -0.0017
      8 C          63.4509   91.8245    2.7839 C.ar    1  UNL1       -0.0002
      9 C          61.9976   92.0242    3.0972 C.ar    1  UNL1        0.0001
     10 C          61.3442   91.2112    4.1753 C.ar    1  UNL1        0.0045
     11 C          63.9577   94.4632   -0.1369 C.3     1  UNL1        0.1429
     12 O          63.2675   93.5038   -1.0605 O.3     1  UNL1       -0.3770
     13 C          64.4667   95.0757   -1.4080 C.ar    1  UNL1        0.0859
     14 C          64.4392   94.9663   -2.9037 C.ar    1  UNL1        0.1160
     15 N          65.2904   96.0666   -3.4647 N.ar    1  UNL1       -0.2226
     16 C          65.8440   96.8560   -2.3157 C.ar    1  UNL1        0.1784
     17 N          65.3349   96.2436   -1.0445 N.ar    1  UNL1       -0.3102
     18 C          65.3625   96.3530    0.4512 C.3     1  UNL1        0.1102
     19 C          64.5113   95.2527    1.0122 C.3     1  UNL1        0.0521
     20 C          64.9041   95.8377    2.3364 C.3     1  UNL1        0.0050
     21 C          63.9433   94.5491    2.0146 C.3     1  UNL1        0.0050
     22 H          63.4750   93.7340   -1.9797 H       1  UNL1        0.2112
     23 C          59.4258   88.9920    7.6003 C.3     1  UNL1        0.1109
     24 N          60.0791   89.8050    6.5223 N.am    1  UNL1       -0.2992
     25 C          59.2377   90.5979    5.5667 C.2     1  UNL1        0.2459
     26 O          57.7428   90.5777    5.6891 O.2     1  UNL1       -0.2701
     27 H          61.0603   89.8182    6.4419 H       1  UNL1        0.1498
@<TRIPOS>BOND
     1    23    24    1
     2    24    25   am
     3    25    26    2
     4    25     1    1
     5     1     2   ar
     6     2     3   ar
     7     3     4   ar
     8     4     5   ar
     9     5     6   ar
    10     6    11    1
    11    11    12    1
    12    11    13    1
    13    13    14   ar
    14    14    15   ar
    15    15    16   ar
    16    16    17   ar
    17    17    18    1
    18    18    19    1
    19    19    20    1
    20    19    21    1
    21     6     7   ar
    22     7     8   ar
    23     8     9   ar
    24     9    10   ar
    25    10     1   ar
    26     9     4   ar
    27    19    11    1
    28    17    13   ar
    29    24    27    1
    30    12    22    1
@<TRIPOS>MOLECULE
*****
 27 30 0 0 0
SMALL
GASTEIGER

@<TRIPOS>ATOM
      1 C          61.1596   87.3694    9.5594 C.ar    1  UNL1        0.0534
      2 C          61.6765   86.6381   10.7627 C.ar    1  UNL1        0.0045
      3 C          62.5340   87.3535   11.7641 C.ar    1  UNL1        0.0001
      4 C          62.8745   88.8003   11.5623 C.ar    1  UNL1       -0.0002
      5 C          63.7319   89.5158   12.5637 C.ar    1  UNL1       -0.0017
      6 C          64.0724   90.9626   12.3619 C.ar    1  UNL1        0.0071
      7 C          63.5554   91.6940   11.1586 C.ar    1  UNL1       -0.0017
      8 C          62.6980   90.9786   10.1572 C.ar    1  UNL1       -0.0002
      9 C          62.3575   89.5317   10.3590 C.ar    1  UNL1        0.0001
     10 C          61.5000   88.8162    9.3576 C.ar    1  UNL1        0.0045
     11 C          64.9299   91.6781   13.3633 C.3     1  UNL1        0.1429
     12 O          64.1476   90.8831   14.3662 O.3     1  UNL1       -0.3770
     13 C          65.6238   92.2274   14.5744 C.ar    1  UNL1        0.0859
     14 C          65.6799   92.1680   16.0721 C.ar    1  UNL1        0.1160
     15 N          66.7466   93.1161   16.5340 N.ar    1  UNL1       -0.2226
     16 C          67.3496   93.7615   15.3217 C.ar    1  UNL1        0.1784
     17 N          66.6557   93.2122   14.1106 N.ar    1  UNL1       -0.3102
     18 C          66.5996   93.2716   12.6128 C.3     1  UNL1        0.1102
     19 C          65.5330   92.3235   12.1510 C.3     1  UNL1        0.0521
     20 C          65.9304   92.7911   10.7823 C.3     1  UNL1        0.0050
     21 C          64.7836   91.7027   11.2152 C.3     1  UNL1        0.0050
     22 H          64.4545   91.0994   15.2606 H       1  UNL1        0.2112
     23 C          60.0631   84.9596    6.6030 C.3     1  UNL1        0.1109
     24 N          60.9205   85.6751    7.6044 N.am    1  UNL1       -0.2992
     25 C          60.3021   86.6539    8.5580 C.2     1  UNL1        0.2459
     26 O          58.8262   86.9173    8.5101 O.2     1  UNL1       -0.2701
     27 H          61.8892   85.5022    7.6358 H       1  UNL1        0.1498
@<TRIPOS>BOND
     1    23    24    1
     2    24    25   am
     3    25    26    2
     4    25     1    1
     5     1     2   ar
     6     2     3   ar
     7     3     4   ar
     8     4     5   ar
     9     5     6   ar
    10     6    11    1
    11    11    12    1
    12    11    13    1
    13    13    14   ar
    14    14    15   ar
    15    15    16   ar
    16    16    17   ar
    17    17    18    1
    18    18    19    1
    19    19    20    1
    20    19    21    1
    21     6     7   ar
    22     7     8   ar
    23     8     9   ar
    24     9    10   ar
    25    10     1   ar
    26     9     4   ar
    27    19    11    1
    28    17    13   ar
    29    24    27    1
    30    12    22    1
@<TRIPOS>MOLECULE
*****
 27 30 0 0 0
SMALL
GASTEIGER

@<TRIPOS>ATOM
      1 C          61.2493   87.2462    9.5543 C.ar    1  UNL1        0.0534
      2 C          61.7410   86.5008   10.7595 C.ar    1  UNL1        0.0045
      3 C          62.5854   87.2017   11.7821 C.ar    1  UNL1        0.0001
      4 C          62.9381   88.6481   11.5994 C.ar    1  UNL1       -0.0002
      5 C          63.7826   89.3491   12.6220 C.ar    1  UNL1       -0.0017
      6 C          64.1353   90.7955   12.4394 C.ar    1  UNL1        0.0071
      7 C          63.6437   91.5410   11.2341 C.ar    1  UNL1       -0.0017
      8 C          62.7993   90.8401   10.2116 C.ar    1  UNL1       -0.0002
      9 C          62.4465   89.3936   10.3943 C.ar    1  UNL1        0.0001
     10 C          61.6021   88.6926    9.3717 C.ar    1  UNL1        0.0045
     11 C          64.9797   91.4965   13.4619 C.3     1  UNL1        0.1429
     12 O          65.7073   92.0315   12.2643 O.3     1  UNL1       -0.3770
     13 C          65.9762   92.3092   14.2341 C.ar    1  UNL1        0.0859
     14 C          67.1509   93.2328   14.1033 C.ar    1  UNL1        0.1160
     15 N          67.5886   93.6244   15.4835 N.ar    1  UNL1       -0.2226
     16 C          66.6845   92.9428   16.4673 C.ar    1  UNL1        0.1784
     17 N          65.6880   92.1300   15.6952 N.ar    1  UNL1       -0.3102
     18 C          64.5133   91.2064   15.8260 C.3     1  UNL1        0.1102
     19 C          64.0756   90.8149   14.4458 C.3     1  UNL1        0.0521
     20 C          63.0344   90.0165   15.1729 C.3     1  UNL1        0.0050
     21 C          63.2902   90.1651   13.5605 C.3     1  UNL1        0.0050
     22 H          66.4284   92.6108   12.5563 H       1  UNL1        0.2112
     23 C          60.1955   84.9004    6.5316 C.3     1  UNL1        0.1109
     24 N          61.0400   85.6014    7.5542 N.am    1  UNL1       -0.2992
     25 C          60.4049   86.5453    8.5318 C.2     1  UNL1        0.2459
     26 O          58.9254   86.7882    8.4868 O.2     1  UNL1       -0.2701
     27 H          62.0110   85.4419    7.5837 H       1  UNL1        0.1498
@<TRIPOS>BOND
     1    23    24    1
     2    24    25   am
     3    25    26    2
     4    25     1    1
     5     1     2   ar
     6     2     3   ar
     7     3     4   ar
     8     4     5   ar
     9     5     6   ar
    10     6    11    1
    11    11    12    1
    12    11    13    1
    13    13    14   ar
    14    14    15   ar
    15    15    16   ar
    16    16    17   ar
    17    17    18    1
    18    18    19    1
    19    19    20    1
    20    19    21    1
    21     6     7   ar
    22     7     8   ar
    23     8     9   ar
    24     9    10   ar
    25    10     1   ar
    26     9     4   ar
    27    19    11    1
    28    17    13   ar
    29    24    27    1
    30    12    22    1
@<TRIPOS>MOLECULE
*****
 27 30 0 0 0
SMALL
GASTEIGER

@<TRIPOS>ATOM
      1 C          59.5731   88.9893    7.2880 C.ar    1  UNL1        0.0534
      2 C          59.1924   87.5412    7.1985 C.ar    1  UNL1        0.0045
      3 C          59.7518   86.5564    8.1821 C.ar    1  UNL1        0.0001
      4 C          60.6919   87.0198    9.2551 C.ar    1  UNL1       -0.0002
      5 C          61.2512   86.0351   10.2387 C.ar    1  UNL1       -0.0017
      6 C          62.1913   86.4984   11.3118 C.ar    1  UNL1        0.0071
      7 C          62.5720   87.9466   11.4013 C.ar    1  UNL1       -0.0017
      8 C          62.0127   88.9313   10.4178 C.ar    1  UNL1       -0.0002
      9 C          61.0725   88.4679    9.3446 C.ar    1  UNL1        0.0001
     10 C          60.5131   89.4526    8.3611 C.ar    1  UNL1        0.0045
     11 C          62.7507   85.5137   12.2953 C.3     1  UNL1        0.1429
     12 O          62.0568   84.4995   11.4354 O.3     1  UNL1       -0.3770
     13 C          63.1650   84.3170   13.0991 C.ar    1  UNL1        0.0859
     14 C          63.0645   82.8232   13.1915 C.ar    1  UNL1        0.1160
     15 N          63.8354   82.3806   14.3997 N.ar    1  UNL1       -0.2226
     16 C          64.4124   83.6007   15.0540 C.ar    1  UNL1        0.1784
     17 N          63.9981   84.7975   14.2502 N.ar    1  UNL1       -0.3102
     18 C          64.0986   86.2913   14.1579 C.3     1  UNL1        0.1102
     19 C          63.3277   86.7339   12.9497 C.3     1  UNL1        0.0521
     20 C          63.7626   88.1067   13.3698 C.3     1  UNL1        0.0050
     21 C          62.8447   87.6550   12.0890 C.3     1  UNL1        0.0050
     22 H          62.2056   83.6121   11.7979 H       1  UNL1        0.2112
     23 C          59.3752   91.8736    4.5693 C.3     1  UNL1        0.1109
     24 N          59.9346   90.8889    5.5529 N.am    1  UNL1       -0.2992
     25 C          59.0137   89.9740    6.3045 C.2     1  UNL1        0.2459
     26 O          57.5334   90.0438    6.0725 O.2     1  UNL1       -0.2701
     27 H          60.9061   90.8430    5.7051 H       1  UNL1        0.1498
@<TRIPOS>BOND
     1    23    24    1
     2    24    25   am
     3    25    26    2
     4    25     1    1
     5     1     2   ar
     6     2     3   ar
     7     3     4   ar
     8     4     5   ar
     9     5     6   ar
    10     6    11    1
    11    11    12    1
    12    11    13    1
    13    13    14   ar
    14    14    15   ar
    15    15    16   ar
    16    16    17   ar
    17    17    18    1
    18    18    19    1
    19    19    20    1
    20    19    21    1
    21     6     7   ar
    22     7     8   ar
    23     8     9   ar
    24     9    10   ar
    25    10     1   ar
    26     9     4   ar
    27    19    11    1
    28    17    13   ar
    29    24    27    1
    30    12    22    1
@<TRIPOS>MOLECULE
*****
 27 30 0 0 0
SMALL
GASTEIGER

@<TRIPOS>ATOM
      1 C          64.2473   89.3696   14.0355 C.ar    1  UNL1        0.0534
      2 C          64.8335   88.4344   15.0512 C.ar    1  UNL1        0.0045
      3 C          64.6863   86.9516   14.8786 C.ar    1  UNL1        0.0001
      4 C          63.9527   86.4041   13.6903 C.ar    1  UNL1       -0.0002
      5 C          63.8055   84.9214   13.5177 C.ar    1  UNL1       -0.0017
      6 C          63.0720   84.3738   12.3294 C.ar    1  UNL1        0.0071
      7 C          62.4857   85.3090   11.3136 C.ar    1  UNL1       -0.0017
      8 C          62.6329   86.7918   11.4862 C.ar    1  UNL1       -0.0002
      9 C          63.3665   87.3393   12.6746 C.ar    1  UNL1        0.0001
     10 C          63.5137   88.8220   12.8472 C.ar    1  UNL1        0.0045
     11 C          62.9247   82.8911   12.1568 C.3     1  UNL1        0.1429
     12 O          63.3448   83.1724   10.7446 O.3     1  UNL1       -0.3770
     13 C          62.8653   81.4672   11.6890 C.ar    1  UNL1        0.0859
     14 C          63.0692   80.5694   10.5048 C.ar    1  UNL1        0.1160
     15 N          62.7691   79.1632   10.9320 N.ar    1  UNL1       -0.2226
     16 C          62.3798   79.1919   12.3803 C.ar    1  UNL1        0.1784
     17 N          62.4392   80.6158   12.8481 N.ar    1  UNL1       -0.3102
     18 C          62.2353   81.5136   14.0324 C.3     1  UNL1        0.1102
     19 C          62.5353   82.9198   13.6051 C.3     1  UNL1        0.0521
     20 C          62.1938   83.2572   15.0262 C.3     1  UNL1        0.0050
     21 C          62.6550   84.2494   13.8056 C.3     1  UNL1        0.0050
     22 H          63.3720   82.3420   10.2439 H       1  UNL1        0.2112
     23 C          65.5637   93.0856   13.5793 C.3     1  UNL1        0.1109
     24 N          65.4164   91.6029   13.4067 N.am    1  UNL1       -0.2992
     25 C          64.3945   90.8523   14.2081 C.2     1  UNL1        0.2459
     26 O          63.5199   91.5845   15.1822 O.2     1  UNL1       -0.2701
     27 H          65.9905   91.1223   12.7674 H       1  UNL1        0.1498
@<TRIPOS>BOND
     1    23    24    1
     2    24    25   am
     3    25    26    2
     4    25     1    1
     5     1     2   ar
     6     2     3   ar
     7     3     4   ar
     8     4     5   ar
     9     5     6   ar
    10     6    11    1
    11    11    12    1
    12    11    13    1
    13    13    14   ar
    14    14    15   ar
    15    15    16   ar
    16    16    17   ar
    17    17    18    1
    18    18    19    1
    19    19    20    1
    20    19    21    1
    21     6     7   ar
    22     7     8   ar
    23     8     9   ar
    24     9    10   ar
    25    10     1   ar
    26     9     4   ar
    27    19    11    1
    28    17    13   ar
    29    24    27    1
    30    12    22    1
