@<TRIPOS>MOLECULE
*****
 37 41 0 0 0
SMALL
GASTEIGER

@<TRIPOS>ATOM
      1 C          62.5258   87.2485   11.7514 C.ar    1  UNL1        0.0058
      2 C          61.4968   86.5710   10.8958 C.ar    1  UNL1        0.0608
      3 C          60.7703   87.3488    9.8388 C.ar    1  UNL1        0.2610
      4 O          59.7412   86.6712    8.9832 O.2     1  UNL1       -0.2670
      5 N          61.0728   88.8040    9.6374 N.ar    1  UNL1       -0.2935
      6 C          60.3462   89.5818    8.5804 C.3     1  UNL1        0.1335
      7 C          62.1018   89.4816   10.4930 C.ar    1  UNL1        0.0625
      8 C          62.4043   90.9369   10.2916 C.ar    1  UNL1        0.0170
      9 C          63.4333   91.6144   11.1472 C.ar    1  UNL1       -0.0009
     10 C          64.1598   90.8367   12.2042 C.ar    1  UNL1       -0.0005
     11 C          63.8574   89.3814   12.4056 C.ar    1  UNL1       -0.0009
     12 C          62.8284   88.7039   11.5500 C.ar    1  UNL1        0.0158
     13 C          62.7691   84.2674   11.5193 C.3     1  UNL1        0.0319
     14 C          63.3740   84.9802   12.6924 C.ar    1  UNL1       -0.0113
     15 C          64.1006   84.2025   13.7494 C.ar    1  UNL1        0.0537
     16 CL         64.2222   82.7119   13.6333 Cl      1  UNL1       -0.0826
     17 C          64.7054   84.9152   14.9224 C.ar    1  UNL1        0.0111
     18 C          64.5838   86.4058   15.0385 C.ar    1  UNL1        0.0008
     19 C          63.8573   87.1836   13.9815 C.ar    1  UNL1       -0.0003
     20 C          63.2524   86.4707   12.8084 C.ar    1  UNL1       -0.0029
     21 C          65.1889   91.5143   13.0598 C.3     1  UNL1        0.1128
     22 N          64.7053   90.7433   14.2521 N.3     1  UNL1       -0.3125
     23 H          63.8140   91.1269   14.5664 H       1  UNL1        0.1197
     24 H          65.3906   90.8151   15.0042 H       1  UNL1        0.1197
     25 C          66.2179   92.1918   13.9153 C.ar    1  UNL1       -0.0006
     26 C          66.3907   93.6802   13.8437 C.ar    1  UNL1       -0.0015
     27 C          67.4197   94.3578   14.6992 C.ar    1  UNL1        0.0111
     28 C          68.2760   93.5471   15.6264 C.ar    1  UNL1        0.0577
     29 CL         69.3050   94.2247   16.4819 Cl      1  UNL1       -0.0822
     30 C          68.1033   92.0588   15.6980 C.ar    1  UNL1        0.0111
     31 C          67.0742   91.3812   14.8425 C.ar    1  UNL1       -0.0015
     32 C          65.6725   92.2853   11.8675 C.ar    1  UNL1        0.0780
     33 C          64.8729   93.2766   11.0750 C.ar    1  UNL1        0.1152
     34 N          65.7469   93.8043    9.9760 N.ar    1  UNL1       -0.2226
     35 C          67.0866   93.1392   10.0893 C.ar    1  UNL1        0.1784
     36 N          67.0406   92.2004   11.2582 N.ar    1  UNL1       -0.3088
     37 C          68.1652   91.3295   11.7345 C.3     1  UNL1        0.1318
@<TRIPOS>BOND
     1    13    14    1
     2    14    15   ar
     3    15    16    1
     4    15    17   ar
     5    17    18   ar
     6    18    19   ar
     7    19    20   ar
     8    20     1    1
     9     1     2   ar
    10     2     3   ar
    11     3     4    2
    12     3     5   ar
    13     5     6    1
    14     5     7   ar
    15     7     8   ar
    16     8     9   ar
    17     9    10   ar
    18    10    21    1
    19    21    22    1
    20    21    25    1
    21    25    26   ar
    22    26    27   ar
    23    27    28   ar
    24    28    29    1
    25    28    30   ar
    26    30    31   ar
    27    21    32    1
    28    32    33   ar
    29    33    34   ar
    30    34    35   ar
    31    35    36   ar
    32    36    37    1
    33    10    11   ar
    34    11    12   ar
    35    20    14   ar
    36    12     1   ar
    37    12     7   ar
    38    31    25   ar
    39    36    32   ar
    40    22    23    1
    41    22    24    1
@<TRIPOS>MOLECULE
*****
 37 41 0 0 0
SMALL
GASTEIGER

@<TRIPOS>ATOM
      1 C          62.0618   86.6106   11.0391 C.ar    1  UNL1        0.0058
      2 C          61.0619   86.0053   10.0990 C.ar    1  UNL1        0.0608
      3 C          60.2723   86.8850    9.1756 C.ar    1  UNL1        0.2610
      4 O          59.2724   86.2795    8.2355 O.2     1  UNL1       -0.2670
      5 N          60.4825   88.3700    9.1923 N.ar    1  UNL1       -0.2935
      6 C          59.6929   89.2497    8.2690 C.3     1  UNL1        0.1335
      7 C          61.4824   88.9755   10.1324 C.ar    1  UNL1        0.0625
      8 C          61.6926   90.4606   10.1492 C.ar    1  UNL1        0.0170
      9 C          62.6925   91.0659   11.0892 C.ar    1  UNL1       -0.0009
     10 C          63.4821   90.1862   12.0126 C.ar    1  UNL1       -0.0005
     11 C          63.2719   88.7012   11.9959 C.ar    1  UNL1       -0.0009
     12 C          62.2720   88.0958   11.0558 C.ar    1  UNL1        0.0158
     13 C          63.2634   84.0588   10.0171 C.3     1  UNL1        0.0319
     14 C          63.4522   84.4551   11.4515 C.ar    1  UNL1       -0.0113
     15 C          64.2418   83.5754   12.3748 C.ar    1  UNL1        0.0537
     16 CL         64.8427   82.2994   11.8638 Cl      1  UNL1       -0.0826
     17 C          64.4307   83.9715   13.8092 C.ar    1  UNL1        0.0111
     18 C          63.8298   85.2475   14.3202 C.ar    1  UNL1        0.0008
     19 C          63.0402   86.1272   13.3968 C.ar    1  UNL1       -0.0003
     20 C          62.8514   85.7309   11.9624 C.ar    1  UNL1       -0.0029
     21 C          64.4820   90.7917   12.9527 C.3     1  UNL1        0.1128
     22 N          65.1599   91.4664   11.7972 N.3     1  UNL1       -0.3125
     23 H          65.6901   90.7769   11.2643 H       1  UNL1        0.1197
     24 H          65.7929   92.1856   12.1472 H       1  UNL1        0.1197
     25 C          65.4818   91.3971   13.8928 C.ar    1  UNL1       -0.0006
     26 C          66.9152   91.5389   13.4738 C.ar    1  UNL1       -0.0015
     27 C          67.9150   92.1443   14.4139 C.ar    1  UNL1        0.0111
     28 C          67.4815   92.6079   15.7730 C.ar    1  UNL1        0.0577
     29 CL         68.4814   93.2133   16.7131 Cl      1  UNL1       -0.0822
     30 C          66.0483   92.4661   16.1920 C.ar    1  UNL1        0.0111
     31 C          65.0484   91.8607   15.2519 C.ar    1  UNL1       -0.0015
     32 C          63.8041   90.1170   14.1082 C.ar    1  UNL1        0.0780
     33 C          62.4575   90.4683   14.6678 C.ar    1  UNL1        0.1152
     34 N          62.1748   89.5409   15.8125 N.ar    1  UNL1       -0.2226
     35 C          63.3469   88.6164   15.9602 C.ar    1  UNL1        0.1784
     36 N          64.3537   88.9724   14.9069 N.ar    1  UNL1       -0.3088
     37 C          65.6778   88.3017   14.6904 C.3     1  UNL1        0.1318
@<TRIPOS>BOND
     1    13    14    1
     2    14    15   ar
     3    15    16    1
     4    15    17   ar
     5    17    18   ar
     6    18    19   ar
     7    19    20   ar
     8    20     1    1
     9     1     2   ar
    10     2     3   ar
    11     3     4    2
    12     3     5   ar
    13     5     6    1
    14     5     7   ar
    15     7     8   ar
    16     8     9   ar
    17     9    10   ar
    18    10    21    1
    19    21    22    1
    20    21    25    1
    21    25    26   ar
    22    26    27   ar
    23    27    28   ar
    24    28    29    1
    25    28    30   ar
    26    30    31   ar
    27    21    32    1
    28    32    33   ar
    29    33    34   ar
    30    34    35   ar
    31    35    36   ar
    32    36    37    1
    33    10    11   ar
    34    11    12   ar
    35    20    14   ar
    36    12     1   ar
    37    12     7   ar
    38    31    25   ar
    39    36    32   ar
    40    22    23    1
    41    22    24    1
@<TRIPOS>MOLECULE
*****
 37 41 0 0 0
SMALL
GASTEIGER

@<TRIPOS>ATOM
      1 C          61.9064   88.5300   10.0045 C.ar    1  UNL1        0.0058
      2 C          62.0936   89.9978    9.7589 C.ar    1  UNL1        0.0608
      3 C          62.8987   90.8222   10.7193 C.ar    1  UNL1        0.2610
      4 O          63.0859   92.2901   10.4736 O.2     1  UNL1       -0.2670
      5 N          63.5164   90.1788   11.9252 N.ar    1  UNL1       -0.2935
      6 C          64.3214   91.0033   12.8856 C.3     1  UNL1        0.1335
      7 C          63.3292   88.7109   12.1709 C.ar    1  UNL1        0.0625
      8 C          63.9469   88.0675   13.3768 C.ar    1  UNL1        0.0170
      9 C          63.7597   86.5997   13.6224 C.ar    1  UNL1       -0.0009
     10 C          62.9547   85.7753   12.6621 C.ar    1  UNL1       -0.0005
     11 C          62.3369   86.4187   11.4561 C.ar    1  UNL1       -0.0009
     12 C          62.5242   87.8865   11.2105 C.ar    1  UNL1        0.0158
     13 C          63.1821   86.2227    8.5730 C.3     1  UNL1        0.0319
     14 C          61.7392   86.5519    8.3284 C.ar    1  UNL1       -0.0113
     15 C          60.9342   85.7275    7.3681 C.ar    1  UNL1        0.0537
     16 CL         61.5721   84.5739    6.6523 Cl      1  UNL1       -0.0826
     17 C          59.4914   86.0567    7.1235 C.ar    1  UNL1        0.0111
     18 C          58.8535   87.2103    7.8393 C.ar    1  UNL1        0.0008
     19 C          59.6585   88.0347    8.7996 C.ar    1  UNL1       -0.0003
     20 C          61.1014   87.7055    9.0442 C.ar    1  UNL1       -0.0029
     21 C          62.7674   84.3074   12.9078 C.3     1  UNL1        0.1128
     22 N          62.7088   84.0672   11.4283 N.3     1  UNL1       -0.3125
     23 H          61.8096   84.3860   11.0675 H       1  UNL1        0.1197
     24 H          62.8161   83.0703   11.2412 H       1  UNL1        0.1197
     25 C          62.5802   82.8395   13.1534 C.ar    1  UNL1       -0.0006
     26 C          63.3854   81.8403   12.3766 C.ar    1  UNL1       -0.0015
     27 C          63.1982   80.3725   12.6223 C.ar    1  UNL1        0.0111
     28 C          62.2058   79.9038   13.6448 C.ar    1  UNL1        0.0577
     29 CL         62.0186   78.4360   13.8905 Cl      1  UNL1       -0.0822
     30 C          61.4006   80.9029   14.4216 C.ar    1  UNL1        0.0111
     31 C          61.5878   82.3708   14.1759 C.ar    1  UNL1       -0.0015
     32 C          62.8261   84.5475   14.3872 C.ar    1  UNL1        0.0780
     33 C          61.6772   84.9574   15.2601 C.ar    1  UNL1        0.1152
     34 N          62.1850   85.0832   16.6660 N.ar    1  UNL1       -0.2226
     35 C          63.6478   84.7510   16.6619 C.ar    1  UNL1        0.1784
     36 N          64.0440   84.4199   15.2536 N.ar    1  UNL1       -0.3088
     37 C          65.4170   84.0298   14.7925 C.3     1  UNL1        0.1318
@<TRIPOS>BOND
     1    13    14    1
     2    14    15   ar
     3    15    16    1
     4    15    17   ar
     5    17    18   ar
     6    18    19   ar
     7    19    20   ar
     8    20     1    1
     9     1     2   ar
    10     2     3   ar
    11     3     4    2
    12     3     5   ar
    13     5     6    1
    14     5     7   ar
    15     7     8   ar
    16     8     9   ar
    17     9    10   ar
    18    10    21    1
    19    21    22    1
    20    21    25    1
    21    25    26   ar
    22    26    27   ar
    23    27    28   ar
    24    28    29    1
    25    28    30   ar
    26    30    31   ar
    27    21    32    1
    28    32    33   ar
    29    33    34   ar
    30    34    35   ar
    31    35    36   ar
    32    36    37    1
    33    10    11   ar
    34    11    12   ar
    35    20    14   ar
    36    12     1   ar
    37    12     7   ar
    38    31    25   ar
    39    36    32   ar
    40    22    23    1
    41    22    24    1
@<TRIPOS>MOLECULE
*****
 37 41 0 0 0
SMALL
GASTEIGER

@<TRIPOS>ATOM
      1 C          66.5444   92.6125   12.7876 C.ar    1  UNL1        0.0058
      2 C          67.3119   93.2349   13.9160 C.ar    1  UNL1        0.0608
      3 C          66.8415   93.0596   15.3296 C.ar    1  UNL1        0.2610
      4 O          67.6091   93.6821   16.4581 O.2     1  UNL1       -0.2670
      5 N          65.6037   92.2619   15.6146 N.ar    1  UNL1       -0.2935
      6 C          65.1333   92.0866   17.0281 C.3     1  UNL1        0.1335
      7 C          64.8361   91.6394   14.4861 C.ar    1  UNL1        0.0625
      8 C          63.5983   90.8417   14.7711 C.ar    1  UNL1        0.0170
      9 C          62.8308   90.2192   13.6426 C.ar    1  UNL1       -0.0009
     10 C          63.3012   90.3945   12.2291 C.ar    1  UNL1       -0.0005
     11 C          64.5390   91.1923   11.9441 C.ar    1  UNL1       -0.0009
     12 C          65.3065   91.8147   13.0726 C.ar    1  UNL1        0.0158
     13 C          65.7692   95.0640   11.2418 C.3     1  UNL1        0.0319
     14 C          66.6272   94.0135   10.6012 C.ar    1  UNL1       -0.0113
     15 C          67.0976   94.1888    9.1877 C.ar    1  UNL1        0.0537
     16 CL         66.7100   95.4146    8.4148 Cl      1  UNL1       -0.0826
     17 C          67.9556   93.1384    8.5470 C.ar    1  UNL1        0.0111
     18 C          68.3432   91.9126    9.3199 C.ar    1  UNL1        0.0008
     19 C          67.8728   91.7373   10.7334 C.ar    1  UNL1       -0.0003
     20 C          67.0148   92.7878   11.3741 C.ar    1  UNL1       -0.0029
     21 C          62.5336   89.7720   11.1006 C.3     1  UNL1        0.1128
     22 N          62.5353   91.0849   10.3752 N.3     1  UNL1       -0.3125
     23 H          61.8724   91.7199   10.8199 H       1  UNL1        0.1197
     24 H          62.2643   90.9366    9.4031 H       1  UNL1        0.1197
     25 C          61.7661   89.1495    9.9722 C.ar    1  UNL1       -0.0006
     26 C          62.1266   87.7765    9.4875 C.ar    1  UNL1       -0.0015
     27 C          61.3591   87.1540    8.3591 C.ar    1  UNL1        0.0111
     28 C          60.2311   87.9044    7.7153 C.ar    1  UNL1        0.0577
     29 CL         59.4636   87.2819    6.5869 Cl      1  UNL1       -0.0822
     30 C          59.8706   89.2774    8.2000 C.ar    1  UNL1        0.0111
     31 C          60.6382   89.9000    9.3284 C.ar    1  UNL1       -0.0015
     32 C          62.5320   88.4591   11.8260 C.ar    1  UNL1        0.0780
     33 C          63.7330   87.7672   12.3997 C.ar    1  UNL1        0.1152
     34 N          63.2723   86.4880   13.0334 N.ar    1  UNL1       -0.2226
     35 C          61.7866   86.3893   12.8513 C.ar    1  UNL1        0.1784
     36 N          61.3291   87.6074   12.1051 N.ar    1  UNL1       -0.3088
     37 C          59.9167   87.9193   11.7078 C.3     1  UNL1        0.1318
@<TRIPOS>BOND
     1    13    14    1
     2    14    15   ar
     3    15    16    1
     4    15    17   ar
     5    17    18   ar
     6    18    19   ar
     7    19    20   ar
     8    20     1    1
     9     1     2   ar
    10     2     3   ar
    11     3     4    2
    12     3     5   ar
    13     5     6    1
    14     5     7   ar
    15     7     8   ar
    16     8     9   ar
    17     9    10   ar
    18    10    21    1
    19    21    22    1
    20    21    25    1
    21    25    26   ar
    22    26    27   ar
    23    27    28   ar
    24    28    29    1
    25    28    30   ar
    26    30    31   ar
    27    21    32    1
    28    32    33   ar
    29    33    34   ar
    30    34    35   ar
    31    35    36   ar
    32    36    37    1
    33    10    11   ar
    34    11    12   ar
    35    20    14   ar
    36    12     1   ar
    37    12     7   ar
    38    31    25   ar
    39    36    32   ar
    40    22    23    1
    41    22    24    1
@<TRIPOS>MOLECULE
*****
 37 41 0 0 0
SMALL
GASTEIGER

@<TRIPOS>ATOM
      1 C          62.7923   88.6407   11.0811 C.ar    1  UNL1        0.0058
      2 C          63.1084   90.1037   10.9832 C.ar    1  UNL1        0.0608
      3 C          63.8356   90.7903   12.1011 C.ar    1  UNL1        0.2610
      4 O          64.1517   92.2534   12.0031 O.2     1  UNL1       -0.2670
      5 N          64.2468   90.0140   13.3169 N.ar    1  UNL1       -0.2935
      6 C          64.9740   90.7006   14.4347 C.3     1  UNL1        0.1335
      7 C          63.9307   88.5509   13.4148 C.ar    1  UNL1        0.0625
      8 C          64.3418   87.7745   14.6306 C.ar    1  UNL1        0.0170
      9 C          64.0257   86.3115   14.7285 C.ar    1  UNL1       -0.0009
     10 C          63.2984   85.6249   13.6107 C.ar    1  UNL1       -0.0005
     11 C          62.8873   86.4012   12.3949 C.ar    1  UNL1       -0.0009
     12 C          63.2034   87.8642   12.2970 C.ar    1  UNL1        0.0158
     13 C          60.1158   89.6573   10.1851 C.3     1  UNL1        0.0319
     14 C          60.7268   88.4623    9.5152 C.ar    1  UNL1       -0.0113
     15 C          59.9996   87.7757    8.3974 C.ar    1  UNL1        0.0537
     16 CL         58.6613   88.2840    7.9494 Cl      1  UNL1       -0.0826
     17 C          60.6106   86.5807    7.7275 C.ar    1  UNL1        0.0111
     18 C          61.9488   86.0724    8.1755 C.ar    1  UNL1        0.0008
     19 C          62.6761   86.7590    9.2934 C.ar    1  UNL1       -0.0003
     20 C          62.0650   87.9540    9.9632 C.ar    1  UNL1       -0.0029
     21 C          62.9823   84.1618   13.7086 C.3     1  UNL1        0.1128
     22 N          62.3463   84.3888   15.0479 N.3     1  UNL1       -0.3125
     23 H          63.0724   84.5442   15.7472 H       1  UNL1        0.1197
     24 H          61.7954   83.5700   15.3059 H       1  UNL1        0.1197
     25 C          62.6663   82.6987   13.8065 C.ar    1  UNL1       -0.0006
     26 C          61.2590   82.2515   14.0707 C.ar    1  UNL1       -0.0015
     27 C          60.9430   80.7884   14.1687 C.ar    1  UNL1        0.0111
     28 C          62.0341   79.7726   14.0024 C.ar    1  UNL1        0.0577
     29 CL         61.7180   78.3096   14.1003 Cl      1  UNL1       -0.0822
     30 C          63.4412   80.2198   13.7382 C.ar    1  UNL1        0.0111
     31 C          63.7574   81.6829   13.6403 C.ar    1  UNL1       -0.0015
     32 C          63.6184   83.9347   12.3693 C.ar    1  UNL1        0.0780
     33 C          65.0650   83.6253   12.1213 C.ar    1  UNL1        0.1152
     34 N          65.2602   83.4765   10.6414 N.ar    1  UNL1       -0.2226
     35 C          63.9341   83.6941    9.9749 C.ar    1  UNL1        0.1784
     36 N          62.9195   83.9772   11.0427 N.ar    1  UNL1       -0.3088
     37 C          61.4618   84.2543   10.8227 C.3     1  UNL1        0.1318
@<TRIPOS>BOND
     1    13    14    1
     2    14    15   ar
     3    15    16    1
     4    15    17   ar
     5    17    18   ar
     6    18    19   ar
     7    19    20   ar
     8    20     1    1
     9     1     2   ar
    10     2     3   ar
    11     3     4    2
    12     3     5   ar
    13     5     6    1
    14     5     7   ar
    15     7     8   ar
    16     8     9   ar
    17     9    10   ar
    18    10    21    1
    19    21    22    1
    20    21    25    1
    21    25    26   ar
    22    26    27   ar
    23    27    28   ar
    24    28    29    1
    25    28    30   ar
    26    30    31   ar
    27    21    32    1
    28    32    33   ar
    29    33    34   ar
    30    34    35   ar
    31    35    36   ar
    32    36    37    1
    33    10    11   ar
    34    11    12   ar
    35    20    14   ar
    36    12     1   ar
    37    12     7   ar
    38    31    25   ar
    39    36    32   ar
    40    22    23    1
    41    22    24    1
@<TRIPOS>MOLECULE
*****
 37 41 0 0 0
SMALL
GASTEIGER

@<TRIPOS>ATOM
      1 C          62.1521   88.3063   10.5508 C.ar    1  UNL1        0.0058
      2 C          62.4197   89.7660   10.3327 C.ar    1  UNL1        0.0608
      3 C          63.2285   90.5378   11.3328 C.ar    1  UNL1        0.2610
      4 O          63.4961   91.9976   11.1147 O.2     1  UNL1       -0.2670
      5 N          63.7698   89.8499   12.5509 N.ar    1  UNL1       -0.2935
      6 C          64.5786   90.6218   13.5509 C.3     1  UNL1        0.1335
      7 C          63.5022   88.3902   12.7690 C.ar    1  UNL1        0.0625
      8 C          64.0434   87.7023   13.9871 C.ar    1  UNL1        0.0170
      9 C          63.7758   86.2426   14.2052 C.ar    1  UNL1       -0.0009
     10 C          62.9670   85.4707   13.2051 C.ar    1  UNL1       -0.0005
     11 C          62.4257   86.1586   11.9870 C.ar    1  UNL1       -0.0009
     12 C          62.6933   87.6183   11.7690 C.ar    1  UNL1        0.0158
     13 C          63.5019   86.3542    8.7157 C.3     1  UNL1        0.0319
     14 C          62.0181   86.5585    8.6332 C.ar    1  UNL1       -0.0113
     15 C          61.2092   85.7867    7.6332 C.ar    1  UNL1        0.0537
     16 CL         61.8842   84.8106    6.7156 Cl      1  UNL1       -0.0826
     17 C          59.7255   85.9909    7.5507 C.ar    1  UNL1        0.0111
     18 C          59.0506   86.9669    8.4683 C.ar    1  UNL1        0.0008
     19 C          59.8594   87.7388    9.4683 C.ar    1  UNL1       -0.0003
     20 C          61.3432   87.5345    9.5508 C.ar    1  UNL1       -0.0029
     21 C          62.6994   84.0110   13.4232 C.3     1  UNL1        0.1128
     22 N          62.1397   84.3164   14.7810 N.3     1  UNL1       -0.3125
     23 H          62.9023   84.5382   15.4210 H       1  UNL1        0.1197
     24 H          61.6292   83.5047   15.1287 H       1  UNL1        0.1197
     25 C          62.4318   82.5512   13.6413 C.ar    1  UNL1       -0.0006
     26 C          61.0358   82.0780   13.9195 C.ar    1  UNL1       -0.0015
     27 C          60.7683   80.6182   14.1376 C.ar    1  UNL1        0.0111
     28 C          61.8966   79.6317   14.0774 C.ar    1  UNL1        0.0577
     29 CL         61.6291   78.1720   14.2955 Cl      1  UNL1       -0.0822
     30 C          63.2925   80.1049   13.7992 C.ar    1  UNL1        0.0111
     31 C          63.5602   81.5647   13.5811 C.ar    1  UNL1       -0.0015
     32 C          63.2590   83.7056   12.0655 C.ar    1  UNL1        0.0780
     33 C          62.4667   83.5342   10.8034 C.ar    1  UNL1        0.1152
     34 N          63.4273   83.2406    9.6893 N.ar    1  UNL1       -0.2226
     35 C          64.8133   83.2305   10.2629 C.ar    1  UNL1        0.1784
     36 N          64.7093   83.5178   11.7314 N.ar    1  UNL1       -0.3088
     37 C          65.8544   83.6026   12.6965 C.3     1  UNL1        0.1318
@<TRIPOS>BOND
     1    13    14    1
     2    14    15   ar
     3    15    16    1
     4    15    17   ar
     5    17    18   ar
     6    18    19   ar
     7    19    20   ar
     8    20     1    1
     9     1     2   ar
    10     2     3   ar
    11     3     4    2
    12     3     5   ar
    13     5     6    1
    14     5     7   ar
    15     7     8   ar
    16     8     9   ar
    17     9    10   ar
    18    10    21    1
    19    21    22    1
    20    21    25    1
    21    25    26   ar
    22    26    27   ar
    23    27    28   ar
    24    28    29    1
    25    28    30   ar
    26    30    31   ar
    27    21    32    1
    28    32    33   ar
    29    33    34   ar
    30    34    35   ar
    31    35    36   ar
    32    36    37    1
    33    10    11   ar
    34    11    12   ar
    35    20    14   ar
    36    12     1   ar
    37    12     7   ar
    38    31    25   ar
    39    36    32   ar
    40    22    23    1
    41    22    24    1
@<TRIPOS>MOLECULE
*****
 37 41 0 0 0
SMALL
GASTEIGER

@<TRIPOS>ATOM
      1 C          62.1413   88.5686   10.8175 C.ar    1  UNL1        0.0058
      2 C          62.2854   90.0357   11.0946 C.ar    1  UNL1        0.0608
      3 C          63.0630   90.5003   12.2902 C.ar    1  UNL1        0.2610
      4 O          63.2070   91.9675   12.5672 O.2     1  UNL1       -0.2670
      5 N          63.6965   89.4979   13.2087 N.ar    1  UNL1       -0.2935
      6 C          64.4742   89.9626   14.4043 C.3     1  UNL1        0.1335
      7 C          63.5525   88.0307   12.9316 C.ar    1  UNL1        0.0625
      8 C          64.1860   87.0283   13.8501 C.ar    1  UNL1        0.0170
      9 C          64.0420   85.5612   13.5730 C.ar    1  UNL1       -0.0009
     10 C          63.2644   85.0965   12.3774 C.ar    1  UNL1       -0.0005
     11 C          62.6308   86.0990   11.4589 C.ar    1  UNL1       -0.0009
     12 C          62.7749   87.5661   11.7360 C.ar    1  UNL1        0.0158
     13 C          60.2341   90.4372    9.4498 C.3     1  UNL1        0.0319
     14 C          60.4101   89.0382    8.9381 C.ar    1  UNL1       -0.0113
     15 C          59.6325   88.5736    7.7425 C.ar    1  UNL1        0.0537
     16 CL         58.6788   89.5079    7.0587 Cl      1  UNL1       -0.0826
     17 C          59.8085   87.1746    7.2308 C.ar    1  UNL1        0.0111
     18 C          60.7622   86.2403    7.9146 C.ar    1  UNL1        0.0008
     19 C          61.5398   86.7049    9.1102 C.ar    1  UNL1       -0.0003
     20 C          61.3637   88.1039    9.6219 C.ar    1  UNL1       -0.0029
     21 C          63.1203   83.6293   12.1004 C.3     1  UNL1        0.1128
     22 N          62.7238   83.9352   10.6865 N.3     1  UNL1       -0.3125
     23 H          61.7700   84.2964   10.6714 H       1  UNL1        0.1197
     24 H          62.7737   83.0835   10.1275 H       1  UNL1        0.1197
     25 C          62.9763   82.1622   11.8234 C.ar    1  UNL1       -0.0006
     26 C          62.5207   81.2348   12.9108 C.ar    1  UNL1       -0.0015
     27 C          62.3767   79.7677   12.6338 C.ar    1  UNL1        0.0111
     28 C          62.6882   79.2279   11.2694 C.ar    1  UNL1        0.0577
     29 CL         62.5442   77.7608   10.9924 Cl      1  UNL1       -0.0822
     30 C          63.1438   80.1552   10.1820 C.ar    1  UNL1        0.0111
     31 C          63.2878   81.6224   10.4590 C.ar    1  UNL1       -0.0015
     32 C          63.5169   83.3234   13.5143 C.ar    1  UNL1        0.0780
     33 C          64.7974   82.6752   13.9503 C.ar    1  UNL1        0.1152
     34 N          64.7745   82.5632   15.4460 N.ar    1  UNL1       -0.2226
     35 C          63.4798   83.1423   15.9343 C.ar    1  UNL1        0.1784
     36 N          62.7025   83.6121   14.7405 N.ar    1  UNL1       -0.3088
     37 C          61.3487   84.2573   14.7680 C.3     1  UNL1        0.1318
@<TRIPOS>BOND
     1    13    14    1
     2    14    15   ar
     3    15    16    1
     4    15    17   ar
     5    17    18   ar
     6    18    19   ar
     7    19    20   ar
     8    20     1    1
     9     1     2   ar
    10     2     3   ar
    11     3     4    2
    12     3     5   ar
    13     5     6    1
    14     5     7   ar
    15     7     8   ar
    16     8     9   ar
    17     9    10   ar
    18    10    21    1
    19    21    22    1
    20    21    25    1
    21    25    26   ar
    22    26    27   ar
    23    27    28   ar
    24    28    29    1
    25    28    30   ar
    26    30    31   ar
    27    21    32    1
    28    32    33   ar
    29    33    34   ar
    30    34    35   ar
    31    35    36   ar
    32    36    37    1
    33    10    11   ar
    34    11    12   ar
    35    20    14   ar
    36    12     1   ar
    37    12     7   ar
    38    31    25   ar
    39    36    32   ar
    40    22    23    1
    41    22    24    1
