@<TRIPOS>MOLECULE
*****
 47 54 0 0 0
SMALL
GASTEIGER

@<TRIPOS>ATOM
      1 C          64.6380   95.0735   -3.3153 C.ar    1  UNL1        0.0176
      2 C          65.3559   96.3577   -3.0230 C.ar    1  UNL1        0.0014
      3 C          65.4591   96.8548   -1.6115 C.ar    1  UNL1        0.0015
      4 C          64.8444   96.0677   -0.4923 C.ar    1  UNL1        0.0174
      5 C          64.1265   94.7835   -0.7846 C.ar    1  UNL1        0.0653
      6 C          64.0233   94.2864   -2.1960 C.ar    1  UNL1        0.0246
      7 N          66.8781   93.0843   -7.5608 N.pl3   1  UNL1       -0.3289
      8 C          65.6548   93.5818   -6.8495 C.ar    1  UNL1        0.1923
      9 N          65.7580   94.0789   -5.4381 N.ar    1  UNL1       -0.2155
     10 C          64.5347   94.5764   -4.7267 C.ar    1  UNL1        0.0868
     11 C          63.2082   94.5769   -5.4269 C.ar    1  UNL1        0.0532
     12 C          61.8400   95.0039   -4.9846 C.ar    1  UNL1        0.0233
     13 C          60.8911   94.7708   -6.1227 C.ar    1  UNL1        0.0788
     14 N          61.6729   94.1996   -7.2684 N.ar    1  UNL1       -0.2287
     15 C          63.1049   94.0798   -6.8384 C.ar    1  UNL1        0.1439
     16 N          64.3282   93.5822   -7.5497 N.ar    1  UNL1       -0.3123
     17 H          67.7488   93.0840   -7.1013 H       1  UNL1        0.1451
     18 H          66.8103   92.7580   -8.4872 H       1  UNL1        0.1451
     19 H          64.2604   93.2560   -8.4761 H       1  UNL1        0.1700
     20 C          59.4189   95.0583   -6.1163 C.2     1  UNL1       -0.0060
     21 C          58.9250   96.4483   -6.3885 C.2     1  UNL1       -0.0115
     22 C          57.4529   96.7358   -6.3820 C.3     1  UNL1        0.0987
     23 N          56.4746   95.6335   -6.1033 N.3     1  UNL1       -0.2656
     24 C          56.9685   94.2435   -5.8311 C.3     1  UNL1        0.0772
     25 C          58.4406   93.9559   -5.8375 C.3     1  UNL1        0.0449
     26 C          55.0024   95.9210   -6.0969 C.3     1  UNL1        0.1175
     27 C          53.9404   95.9927   -5.0400 C.3     1  UNL1        0.1606
     28 O          52.9205   96.3276   -6.0877 O.3     1  UNL1       -0.3507
     29 C          53.9825   96.2560   -7.1445 C.3     1  UNL1        0.1606
     30 N          63.5118   93.9964    0.3346 N.ar    1  UNL1       -0.2733
     31 C          64.3635   93.0821    1.1646 C.ar    1  UNL1        0.0829
     32 C          63.7487   92.2951    2.2838 C.ar    1  UNL1        0.0193
     33 C          62.2824   92.4222    2.5730 C.ar    1  UNL1        0.0080
     34 C          61.6677   91.6351    3.6923 C.ar    1  UNL1       -0.0039
     35 C          60.2014   91.7623    3.9815 C.ar    1  UNL1       -0.0203
     36 C          59.3497   92.6765    3.1515 C.ar    1  UNL1        0.0255
     37 C          59.9644   93.4636    2.0323 C.ar    1  UNL1        0.1444
     38 F          59.1128   94.3778    1.2023 F       1  UNL1       -0.2040
     39 C          61.4308   93.3364    1.7431 C.ar    1  UNL1        0.0839
     40 C          62.0455   94.1235    0.6239 C.ar    1  UNL1        0.2668
     41 O          61.1938   95.0378   -0.2062 O.2     1  UNL1       -0.2665
     42 C          59.5866   90.9752    5.1007 C.3     1  UNL1        0.0224
     43 C          59.7247   89.9983    6.2305 C.3     1  UNL1        0.0047
     44 C          58.3838   90.5889    5.9094 C.3     1  UNL1        0.0047
     45 C          63.3054   93.0022   -2.4883 C.3     1  UNL1        0.1651
     46 O          61.8105   92.9374   -2.3811 O.3     1  UNL1       -0.3772
     47 H          61.5469   93.0639   -1.4562 H       1  UNL1        0.2109
@<TRIPOS>BOND
     1     7     8    1
     2     8     9   ar
     3     9    10   ar
     4    10     1    1
     5     1     2   ar
     6     2     3   ar
     7     3     4   ar
     8     4     5   ar
     9     5    30    1
    10    30    31   ar
    11    31    32   ar
    12    32    33   ar
    13    33    34   ar
    14    34    35   ar
    15    35    42    1
    16    42    43    1
    17    43    44    1
    18    35    36   ar
    19    36    37   ar
    20    37    38    1
    21    37    39   ar
    22    39    40   ar
    23    40    41    2
    24     5     6   ar
    25     6    45    1
    26    45    46    1
    27    10    11   ar
    28    11    12   ar
    29    12    13   ar
    30    13    20    1
    31    20    21    2
    32    21    22    1
    33    22    23    1
    34    23    26    1
    35    26    27    1
    36    27    28    1
    37    28    29    1
    38    23    24    1
    39    24    25    1
    40    13    14   ar
    41    14    15   ar
    42    15    16   ar
    43    16     8   ar
    44     6     1   ar
    45    15    11    1
    46    40    30   ar
    47    25    20    1
    48    39    33   ar
    49    29    26    1
    50    44    42    1
    51     7    17    1
    52     7    18    1
    53    46    47    1
    54    16    19    1
