@<TRIPOS>MOLECULE
*****
 32 36 0 0 0
SMALL
GASTEIGER

@<TRIPOS>ATOM
      1 O          62.4844   88.1568   10.6618 O.2     1  UNL1       -0.2668
      2 C          61.8946   86.7777   10.6564 C.2     1  UNL1        0.2806
      3 N          60.7693   86.4469    9.7213 N.am    1  UNL1       -0.2999
      4 H          60.3821   85.5417    9.7178 H       1  UNL1        0.1498
      5 C          62.4300   85.7292   11.5860 C.ar    1  UNL1        0.2014
      6 C          63.2463   86.1306   12.7787 C.ar    1  UNL1        0.0843
      7 C          63.7818   85.0823   13.7083 C.ar    1  UNL1        0.2018
      8 O          64.5980   85.4837   14.9010 O.2     1  UNL1       -0.2864
      9 C          63.5010   83.6324   13.4452 C.ar    1  UNL1        0.0737
     10 C          64.0365   82.5841   14.3748 C.ar    1  UNL1        0.0085
     11 C          63.7557   81.1343   14.1117 C.ar    1  UNL1        0.0299
     12 C          62.9394   80.7329   12.9190 C.ar    1  UNL1        0.1432
     13 F          62.6586   79.2830   12.6559 F       1  UNL1       -0.2041
     14 C          62.4039   81.7812   11.9894 C.ar    1  UNL1        0.0672
     15 C          62.6847   83.2310   12.2525 C.ar    1  UNL1        0.1508
     16 O          62.1492   84.2795   11.3229 O.2     1  UNL1       -0.4486
     17 C          60.2338   87.4952    8.7917 C.3     1  UNL1        0.0747
     18 C          60.4096   88.9485    9.1191 C.3     1  UNL1        0.0369
     19 C          59.8742   89.9968    8.1895 C.3     1  UNL1        0.0741
     20 N          59.1628   89.5920    6.9325 N.3     1  UNL1       -0.2688
     21 C          58.9869   88.1387    6.6051 C.3     1  UNL1        0.0741
     22 C          59.5224   87.0903    7.5348 C.3     1  UNL1        0.0369
     23 C          58.6273   90.6403    6.0029 C.3     1  UNL1        0.0992
     24 C          59.5238   91.2547    4.9691 C.ar    1  UNL1       -0.0029
     25 C          58.9829   92.2878    4.0257 C.ar    1  UNL1        0.0004
     26 C          59.8794   92.9021    2.9919 C.ar    1  UNL1        0.0399
     27 C          61.3169   92.4834    2.9014 C.ar    1  UNL1        0.1764
     28 C          61.8578   91.4502    3.8448 C.ar    1  UNL1        0.1762
     29 C          60.9613   90.8359    4.8786 C.ar    1  UNL1        0.0373
     30 O          63.3067   91.2383    3.5190 O.3     1  UNL1       -0.4346
     31 C          63.6611   92.1405    2.3743 C.3     1  UNL1        0.4294
     32 O          62.4313   92.9100    1.9926 O.3     1  UNL1       -0.4346
@<TRIPOS>BOND
     1     1     2    2
     2     2     3   am
     3     3    17    1
     4    17    18    1
     5    18    19    1
     6    19    20    1
     7    20    23    1
     8    23    24    1
     9    24    25   ar
    10    25    26   ar
    11    26    27   ar
    12    27    28   ar
    13    28    29   ar
    14    28    30    1
    15    30    31    1
    16    31    32    1
    17    20    21    1
    18    21    22    1
    19     2     5    1
    20     5     6   ar
    21     6     7   ar
    22     7     8    2
    23     7     9   ar
    24     9    10   ar
    25    10    11   ar
    26    11    12   ar
    27    12    13    1
    28    12    14   ar
    29    14    15   ar
    30    15    16   ar
    31    22    17    1
    32    16     5   ar
    33    29    24   ar
    34    15     9   ar
    35    32    27    1
    36     3     4    1
@<TRIPOS>MOLECULE
*****
 32 36 0 0 0
SMALL
GASTEIGER

@<TRIPOS>ATOM
      1 O          62.5472   88.1240   10.6135 O.2     1  UNL1       -0.2668
      2 C          61.9222   86.7605   10.6300 C.2     1  UNL1        0.2806
      3 N          60.7816   86.4471    9.7076 N.am    1  UNL1       -0.2999
      4 H          60.3714   85.5522    9.7185 H       1  UNL1        0.1498
      5 C          62.4378   85.7104   11.5689 C.ar    1  UNL1        0.2014
      6 C          63.2352   86.1092   12.7752 C.ar    1  UNL1        0.0843
      7 C          63.7508   85.0592   13.7141 C.ar    1  UNL1        0.2018
      8 O          64.5483   85.4579   14.9204 O.2     1  UNL1       -0.2864
      9 C          63.4690   83.6103   13.4468 C.ar    1  UNL1        0.0737
     10 C          63.9846   82.5603   14.3857 C.ar    1  UNL1        0.0085
     11 C          63.7027   81.1115   14.1183 C.ar    1  UNL1        0.0299
     12 C          62.9053   80.7127   12.9120 C.ar    1  UNL1        0.1432
     13 F          62.6235   79.2638   12.6447 F       1  UNL1       -0.2041
     14 C          62.3897   81.7627   11.9731 C.ar    1  UNL1        0.0672
     15 C          62.6716   83.2115   12.2405 C.ar    1  UNL1        0.1508
     16 O          62.1560   84.2616   11.3016 O.2     1  UNL1       -0.4486
     17 C          60.2660   87.4971    8.7687 C.3     1  UNL1        0.0747
     18 C          59.5570   87.0946    7.5097 C.3     1  UNL1        0.0369
     19 C          59.0414   88.1446    6.5708 C.3     1  UNL1        0.0741
     20 N          59.2348   89.5972    6.8909 N.3     1  UNL1       -0.2688
     21 C          59.9438   89.9998    8.1500 C.3     1  UNL1        0.0741
     22 C          60.4594   88.9497    9.0889 C.3     1  UNL1        0.0369
     23 C          58.7192   90.6473    5.9520 C.3     1  UNL1        0.0992
     24 C          59.6369   91.2618    4.9371 C.ar    1  UNL1       -0.0029
     25 C          61.0507   90.7764    4.8131 C.ar    1  UNL1        0.0004
     26 C          61.9685   91.3908    3.7982 C.ar    1  UNL1        0.0399
     27 C          61.4724   92.4907    2.9071 C.ar    1  UNL1        0.1764
     28 C          60.0585   92.9761    3.0310 C.ar    1  UNL1        0.1762
     29 C          59.1408   92.3617    4.0460 C.ar    1  UNL1        0.0373
     30 O          59.8531   94.0676    2.0227 O.3     1  UNL1       -0.4346
     31 C          61.1399   94.2567    1.2756 C.3     1  UNL1        0.4294
     32 O          62.1407   93.2821    1.8222 O.3     1  UNL1       -0.4346
@<TRIPOS>BOND
     1     1     2    2
     2     2     3   am
     3     3    17    1
     4    17    18    1
     5    18    19    1
     6    19    20    1
     7    20    23    1
     8    23    24    1
     9    24    25   ar
    10    25    26   ar
    11    26    27   ar
    12    27    28   ar
    13    28    29   ar
    14    28    30    1
    15    30    31    1
    16    31    32    1
    17    20    21    1
    18    21    22    1
    19     2     5    1
    20     5     6   ar
    21     6     7   ar
    22     7     8    2
    23     7     9   ar
    24     9    10   ar
    25    10    11   ar
    26    11    12   ar
    27    12    13    1
    28    12    14   ar
    29    14    15   ar
    30    15    16   ar
    31    22    17    1
    32    16     5   ar
    33    29    24   ar
    34    15     9   ar
    35    32    27    1
    36     3     4    1
@<TRIPOS>MOLECULE
*****
 32 36 0 0 0
SMALL
GASTEIGER

@<TRIPOS>ATOM
      1 O          62.3983   86.0345    8.3826 O.2     1  UNL1       -0.2668
      2 C          61.8259   86.1373    9.7652 C.2     1  UNL1        0.2806
      3 N          60.7144   87.1044   10.0469 N.am    1  UNL1       -0.2999
      4 H          60.3388   87.1718   10.9544 H       1  UNL1        0.1498
      5 C          62.3650   85.2729   10.8663 C.ar    1  UNL1        0.2014
      6 C          62.6168   83.8148   10.6201 C.ar    1  UNL1        0.0843
      7 C          63.1558   82.9504   11.7211 C.ar    1  UNL1        0.2018
      8 O          63.4076   81.4924   11.4749 O.2     1  UNL1       -0.2864
      9 C          63.4431   83.5441   13.0684 C.ar    1  UNL1        0.0737
     10 C          63.9821   82.6797   14.1694 C.ar    1  UNL1        0.0085
     11 C          64.2694   83.2734   15.5166 C.ar    1  UNL1        0.0299
     12 C          64.0176   84.7315   15.7628 C.ar    1  UNL1        0.1432
     13 F          64.3048   85.3252   17.1100 F       1  UNL1       -0.2041
     14 C          63.4785   85.5959   14.6618 C.ar    1  UNL1        0.0672
     15 C          63.1913   85.0022   13.3146 C.ar    1  UNL1        0.1508
     16 O          62.6522   85.8666   12.2135 O.2     1  UNL1       -0.4486
     17 C          60.1754   87.9688    8.9459 C.3     1  UNL1        0.0747
     18 C          60.4470   89.4440    8.9492 C.3     1  UNL1        0.0369
     19 C          59.9079   90.3083    7.8482 C.3     1  UNL1        0.0741
     20 N          59.0971   89.6975    6.7438 N.3     1  UNL1       -0.2688
     21 C          58.8255   88.2223    6.7405 C.3     1  UNL1        0.0741
     22 C          59.3646   87.3579    7.8416 C.3     1  UNL1        0.0369
     23 C          58.5581   90.5618    5.6428 C.3     1  UNL1        0.0992
     24 C          59.5002   91.2523    4.7018 C.ar    1  UNL1       -0.0029
     25 C          58.9946   92.3337    3.7935 C.ar    1  UNL1        0.0004
     26 C          59.9368   93.0242    2.8525 C.ar    1  UNL1        0.0399
     27 C          61.3845   92.6333    2.8197 C.ar    1  UNL1        0.1764
     28 C          61.8902   91.5519    3.7279 C.ar    1  UNL1        0.1762
     29 C          60.9480   90.8614    4.6690 C.ar    1  UNL1        0.0373
     30 O          63.3588   91.3822    3.4739 O.3     1  UNL1       -0.4346
     31 C          63.7608   92.3587    2.4086 C.3     1  UNL1        0.4294
     32 O          62.5406   93.1319    2.0043 O.3     1  UNL1       -0.4346
@<TRIPOS>BOND
     1     1     2    2
     2     2     3   am
     3     3    17    1
     4    17    18    1
     5    18    19    1
     6    19    20    1
     7    20    23    1
     8    23    24    1
     9    24    25   ar
    10    25    26   ar
    11    26    27   ar
    12    27    28   ar
    13    28    29   ar
    14    28    30    1
    15    30    31    1
    16    31    32    1
    17    20    21    1
    18    21    22    1
    19     2     5    1
    20     5     6   ar
    21     6     7   ar
    22     7     8    2
    23     7     9   ar
    24     9    10   ar
    25    10    11   ar
    26    11    12   ar
    27    12    13    1
    28    12    14   ar
    29    14    15   ar
    30    15    16   ar
    31    22    17    1
    32    16     5   ar
    33    29    24   ar
    34    15     9   ar
    35    32    27    1
    36     3     4    1
@<TRIPOS>MOLECULE
*****
 32 36 0 0 0
SMALL
GASTEIGER

@<TRIPOS>ATOM
      1 O          64.9941   86.0935   14.2077 O.2     1  UNL1       -0.2668
      2 C          63.8342   85.7438   13.3234 C.2     1  UNL1        0.2806
      3 N          63.1086   86.8233   12.5761 N.am    1  UNL1       -0.2999
      4 H          62.3473   86.5938   11.9957 H       1  UNL1        0.1498
      5 C          63.3997   84.3147   13.1862 C.ar    1  UNL1        0.2014
      6 C          62.7071   83.6287   14.3263 C.ar    1  UNL1        0.0843
      7 C          62.2726   82.1996   14.1892 C.ar    1  UNL1        0.2018
      8 O          61.5800   81.5136   15.3293 O.2     1  UNL1       -0.2864
      9 C          62.5307   81.4564   12.9121 C.ar    1  UNL1        0.0737
     10 C          62.0962   80.0273   12.7750 C.ar    1  UNL1        0.0085
     11 C          62.3542   79.2842   11.4979 C.ar    1  UNL1        0.0299
     12 C          63.0468   79.9701   10.3578 C.ar    1  UNL1        0.1432
     13 F          63.3049   79.2269    9.0806 F       1  UNL1       -0.2041
     14 C          63.4813   81.3992   10.4948 C.ar    1  UNL1        0.0672
     15 C          63.2232   82.1424   11.7720 C.ar    1  UNL1        0.1508
     16 O          63.6577   83.5715   11.9091 O.2     1  UNL1       -0.4486
     17 C          63.5431   88.2524   12.7132 C.3     1  UNL1        0.0747
     18 C          64.3417   88.6822   13.9079 C.3     1  UNL1        0.0369
     19 C          64.7762   90.1113   14.0450 C.3     1  UNL1        0.0741
     20 N          64.4119   91.1107   12.9873 N.3     1  UNL1       -0.2688
     21 C          63.6133   90.6809   11.7925 C.3     1  UNL1        0.0741
     22 C          63.1788   89.2517   11.6555 C.3     1  UNL1        0.0369
     23 C          64.8464   92.5398   13.1244 C.3     1  UNL1        0.0992
     24 C          65.6409   93.1904   12.0310 C.ar    1  UNL1       -0.0029
     25 C          66.4227   92.3467   11.0682 C.ar    1  UNL1        0.0004
     26 C          67.2172   92.9973    9.9748 C.ar    1  UNL1        0.0399
     27 C          67.2299   94.4915    9.8441 C.ar    1  UNL1        0.1764
     28 C          66.4481   95.3352   10.8069 C.ar    1  UNL1        0.1762
     29 C          65.6536   94.6846   11.9003 C.ar    1  UNL1        0.0373
     30 O          66.6497   96.7737   10.4323 O.3     1  UNL1       -0.4346
     31 C          67.5561   96.8189    9.2381 C.3     1  UNL1        0.4294
     32 O          67.9147   95.4085    8.8745 O.3     1  UNL1       -0.4346
@<TRIPOS>BOND
     1     1     2    2
     2     2     3   am
     3     3    17    1
     4    17    18    1
     5    18    19    1
     6    19    20    1
     7    20    23    1
     8    23    24    1
     9    24    25   ar
    10    25    26   ar
    11    26    27   ar
    12    27    28   ar
    13    28    29   ar
    14    28    30    1
    15    30    31    1
    16    31    32    1
    17    20    21    1
    18    21    22    1
    19     2     5    1
    20     5     6   ar
    21     6     7   ar
    22     7     8    2
    23     7     9   ar
    24     9    10   ar
    25    10    11   ar
    26    11    12   ar
    27    12    13    1
    28    12    14   ar
    29    14    15   ar
    30    15    16   ar
    31    22    17    1
    32    16     5   ar
    33    29    24   ar
    34    15     9   ar
    35    32    27    1
    36     3     4    1
@<TRIPOS>MOLECULE
*****
 32 36 0 0 0
SMALL
GASTEIGER

@<TRIPOS>ATOM
      1 O          60.8906   91.6345    0.3157 O.2     1  UNL1       -0.2668
      2 C          61.7849   92.7604    0.7429 C.2     1  UNL1        0.2806
      3 N          61.8764   93.1372    2.1919 N.am    1  UNL1       -0.2999
      4 H          62.4633   93.8762    2.4723 H       1  UNL1        0.1498
      5 C          62.5877   93.5097   -0.2790 C.ar    1  UNL1        0.2014
      6 C          63.7918   94.2980    0.1440 C.ar    1  UNL1        0.0843
      7 C          64.5946   95.0472   -0.8777 C.ar    1  UNL1        0.2018
      8 O          65.7986   95.8355   -0.4547 O.2     1  UNL1       -0.2864
      9 C          64.1934   95.0082   -2.3226 C.ar    1  UNL1        0.0737
     10 C          64.9963   95.7574   -3.3444 C.ar    1  UNL1        0.0085
     11 C          64.5951   95.7183   -4.7892 C.ar    1  UNL1        0.0299
     12 C          63.3910   94.9301   -5.2122 C.ar    1  UNL1        0.1432
     13 F          62.9899   94.8910   -6.6571 F       1  UNL1       -0.2041
     14 C          62.5882   94.1808   -4.1904 C.ar    1  UNL1        0.0672
     15 C          62.9894   94.2199   -2.7456 C.ar    1  UNL1        0.1508
     16 O          62.1865   93.4706   -1.7238 O.2     1  UNL1       -0.4486
     17 C          61.0736   92.3880    3.2138 C.3     1  UNL1        0.0747
     18 C          61.7089   91.2817    4.0027 C.3     1  UNL1        0.0369
     19 C          60.9061   90.5325    5.0246 C.3     1  UNL1        0.0741
     20 N          59.4679   90.8896    5.2575 N.3     1  UNL1       -0.2688
     21 C          58.8326   91.9959    4.4685 C.3     1  UNL1        0.0741
     22 C          59.6355   92.7451    3.4466 C.3     1  UNL1        0.0369
     23 C          58.6651   90.1404    6.2793 C.3     1  UNL1        0.0992
     24 C          59.3426   89.1707    7.2016 C.ar    1  UNL1       -0.0029
     25 C          59.1998   87.6949    6.9747 C.ar    1  UNL1        0.0004
     26 C          59.8773   86.7252    7.8970 C.ar    1  UNL1        0.0399
     27 C          60.6977   87.2313    9.0462 C.ar    1  UNL1        0.1764
     28 C          60.8405   88.7071    9.2731 C.ar    1  UNL1        0.1762
     29 C          60.1630   89.6768    8.3509 C.ar    1  UNL1        0.0373
     30 O          61.7072   88.9087   10.4808 O.3     1  UNL1       -0.4346
     31 C          62.1000   87.5574   11.0002 C.3     1  UNL1        0.4294
     32 O          61.4761   86.5208   10.1135 O.3     1  UNL1       -0.4346
@<TRIPOS>BOND
     1     1     2    2
     2     2     3   am
     3     3    17    1
     4    17    18    1
     5    18    19    1
     6    19    20    1
     7    20    23    1
     8    23    24    1
     9    24    25   ar
    10    25    26   ar
    11    26    27   ar
    12    27    28   ar
    13    28    29   ar
    14    28    30    1
    15    30    31    1
    16    31    32    1
    17    20    21    1
    18    21    22    1
    19     2     5    1
    20     5     6   ar
    21     6     7   ar
    22     7     8    2
    23     7     9   ar
    24     9    10   ar
    25    10    11   ar
    26    11    12   ar
    27    12    13    1
    28    12    14   ar
    29    14    15   ar
    30    15    16   ar
    31    22    17    1
    32    16     5   ar
    33    29    24   ar
    34    15     9   ar
    35    32    27    1
    36     3     4    1
@<TRIPOS>MOLECULE
*****
 32 36 0 0 0
SMALL
GASTEIGER

@<TRIPOS>ATOM
      1 O          62.8497   88.9891   12.9646 O.2     1  UNL1       -0.2668
      2 C          64.1005   89.3154   13.7254 C.2     1  UNL1        0.2806
      3 N          64.7107   88.2941   14.6390 N.am    1  UNL1       -0.2999
      4 H          65.5316   88.5082   15.1384 H       1  UNL1        0.1498
      5 C          64.7413   90.6631   13.5727 C.ar    1  UNL1        0.2014
      6 C          65.4496   91.2928   14.7354 C.ar    1  UNL1        0.0843
      7 C          66.0903   92.6404   14.5827 C.ar    1  UNL1        0.2018
      8 O          66.7987   93.2702   15.7453 O.2     1  UNL1       -0.2864
      9 C          66.0228   93.3584   13.2674 C.ar    1  UNL1        0.0737
     10 C          66.6635   94.7060   13.1147 C.ar    1  UNL1        0.0085
     11 C          66.5959   95.4239   11.7994 C.ar    1  UNL1        0.0299
     12 C          65.8876   94.7941   10.6368 C.ar    1  UNL1        0.1432
     13 F          65.8200   95.5121    9.3214 F       1  UNL1       -0.2041
     14 C          65.2469   93.4465   10.7894 C.ar    1  UNL1        0.0672
     15 C          65.3145   92.7286   12.1047 C.ar    1  UNL1        0.1508
     16 O          64.6737   91.3810   12.2574 O.2     1  UNL1       -0.4486
     17 C          64.0700   86.9464   14.7917 C.3     1  UNL1        0.0747
     18 C          63.6443   86.4677   16.1481 C.3     1  UNL1        0.0369
     19 C          63.0037   85.1201   16.3008 C.3     1  UNL1        0.0741
     20 N          62.7886   84.2511   15.0972 N.3     1  UNL1       -0.2688
     21 C          63.2142   84.7298   13.7408 C.3     1  UNL1        0.0741
     22 C          63.8549   86.0775   13.5881 C.3     1  UNL1        0.0369
     23 C          62.1479   82.9035   15.2499 C.3     1  UNL1        0.0992
     24 C          62.2874   81.8792   14.1630 C.ar    1  UNL1       -0.0029
     25 C          61.9798   80.4386   14.4461 C.ar    1  UNL1        0.0004
     26 C          62.1193   79.4143   13.3592 C.ar    1  UNL1        0.0399
     27 C          62.5664   79.8305   11.9892 C.ar    1  UNL1        0.1764
     28 C          62.8741   81.2711   11.7062 C.ar    1  UNL1        0.1762
     29 C          62.7346   82.2954   12.7931 C.ar    1  UNL1        0.0373
     30 O          63.2913   81.3824   10.2696 O.3     1  UNL1       -0.4346
     31 C          63.2415   80.0106    9.6649 C.3     1  UNL1        0.4294
     32 O          62.7935   79.0515   10.7277 O.3     1  UNL1       -0.4346
@<TRIPOS>BOND
     1     1     2    2
     2     2     3   am
     3     3    17    1
     4    17    18    1
     5    18    19    1
     6    19    20    1
     7    20    23    1
     8    23    24    1
     9    24    25   ar
    10    25    26   ar
    11    26    27   ar
    12    27    28   ar
    13    28    29   ar
    14    28    30    1
    15    30    31    1
    16    31    32    1
    17    20    21    1
    18    21    22    1
    19     2     5    1
    20     5     6   ar
    21     6     7   ar
    22     7     8    2
    23     7     9   ar
    24     9    10   ar
    25    10    11   ar
    26    11    12   ar
    27    12    13    1
    28    12    14   ar
    29    14    15   ar
    30    15    16   ar
    31    22    17    1
    32    16     5   ar
    33    29    24   ar
    34    15     9   ar
    35    32    27    1
    36     3     4    1
@<TRIPOS>MOLECULE
*****
 32 36 0 0 0
SMALL
GASTEIGER

@<TRIPOS>ATOM
      1 O          63.8371   91.8993   10.7108 O.2     1  UNL1       -0.2668
      2 C          63.7050   91.1069   11.9774 C.2     1  UNL1        0.2806
      3 N          62.6883   90.0080   12.0721 N.am    1  UNL1       -0.2999
      4 H          62.6017   89.4879   12.9035 H       1  UNL1        0.1498
      5 C          64.5896   91.4132   13.1495 C.ar    1  UNL1        0.2014
      6 C          64.0296   91.3800   14.5406 C.ar    1  UNL1        0.0843
      7 C          64.9141   91.6863   15.7127 C.ar    1  UNL1        0.2018
      8 O          64.3541   91.6531   17.1038 O.2     1  UNL1       -0.2864
      9 C          66.3588   92.0258   15.4936 C.ar    1  UNL1        0.0737
     10 C          67.2433   92.3321   16.6657 C.ar    1  UNL1        0.0085
     11 C          68.6878   92.6716   16.4466 C.ar    1  UNL1        0.0299
     12 C          69.2478   92.7048   15.0554 C.ar    1  UNL1        0.1432
     13 F          70.6924   93.0443   14.8364 F       1  UNL1       -0.2041
     14 C          68.3633   92.3985   13.8834 C.ar    1  UNL1        0.0672
     15 C          66.9188   92.0590   14.1025 C.ar    1  UNL1        0.1508
     16 O          66.0341   91.7527   12.9304 O.2     1  UNL1       -0.4486
     17 C          61.8038   89.7017   10.9001 C.3     1  UNL1        0.0747
     18 C          60.6258   90.5804   10.5996 C.3     1  UNL1        0.0369
     19 C          59.7412   90.2741    9.4276 C.3     1  UNL1        0.0741
     20 N          60.0346   89.0889    8.5560 N.3     1  UNL1       -0.2688
     21 C          61.2125   88.2102    8.8565 C.3     1  UNL1        0.0741
     22 C          62.0971   88.5166   10.0286 C.3     1  UNL1        0.0369
     23 C          59.1500   88.7826    7.3840 C.3     1  UNL1        0.0992
     24 C          58.9712   89.7973    6.2938 C.ar    1  UNL1       -0.0029
     25 C          57.5941   90.2525    5.9114 C.ar    1  UNL1        0.0004
     26 C          57.4154   91.2672    4.8212 C.ar    1  UNL1        0.0399
     27 C          58.6137   91.8266    4.1134 C.ar    1  UNL1        0.1764
     28 C          59.9908   91.3713    4.4958 C.ar    1  UNL1        0.1762
     29 C          60.1696   90.3566    5.5860 C.ar    1  UNL1        0.0373
     30 O          60.9763   92.0949    3.6267 O.3     1  UNL1       -0.4346
     31 C          60.2082   92.9974    2.7072 C.3     1  UNL1        0.4294
     32 O          58.7481   92.8315    3.0080 O.3     1  UNL1       -0.4346
@<TRIPOS>BOND
     1     1     2    2
     2     2     3   am
     3     3    17    1
     4    17    18    1
     5    18    19    1
     6    19    20    1
     7    20    23    1
     8    23    24    1
     9    24    25   ar
    10    25    26   ar
    11    26    27   ar
    12    27    28   ar
    13    28    29   ar
    14    28    30    1
    15    30    31    1
    16    31    32    1
    17    20    21    1
    18    21    22    1
    19     2     5    1
    20     5     6   ar
    21     6     7   ar
    22     7     8    2
    23     7     9   ar
    24     9    10   ar
    25    10    11   ar
    26    11    12   ar
    27    12    13    1
    28    12    14   ar
    29    14    15   ar
    30    15    16   ar
    31    22    17    1
    32    16     5   ar
    33    29    24   ar
    34    15     9   ar
    35    32    27    1
    36     3     4    1
@<TRIPOS>MOLECULE
*****
 32 36 0 0 0
SMALL
GASTEIGER

@<TRIPOS>ATOM
      1 O          66.8760   91.0250   14.0527 O.2     1  UNL1       -0.2668
      2 C          65.7707   91.6947   13.2913 C.2     1  UNL1        0.2806
      3 N          64.3960   91.0945   13.2815 N.am    1  UNL1       -0.2999
      4 H          63.6706   91.5341   12.7817 H       1  UNL1        0.1498
      5 C          66.0400   92.9646   12.5397 C.ar    1  UNL1        0.2014
      6 C          66.0703   94.2754   13.2684 C.ar    1  UNL1        0.0843
      7 C          66.3396   95.5453   12.5169 C.ar    1  UNL1        0.2018
      8 O          66.3699   96.8560   13.2457 O.2     1  UNL1       -0.2864
      9 C          66.5786   95.5045   11.0366 C.ar    1  UNL1        0.0737
     10 C          66.8479   96.7744   10.2851 C.ar    1  UNL1        0.0085
     11 C          67.0869   96.7335    8.8049 C.ar    1  UNL1        0.0299
     12 C          67.0566   95.4228    8.0761 C.ar    1  UNL1        0.1432
     13 F          67.2957   95.3820    6.5958 F       1  UNL1       -0.2041
     14 C          66.7873   94.1529    8.8276 C.ar    1  UNL1        0.0672
     15 C          66.5483   94.1937   10.3079 C.ar    1  UNL1        0.1508
     16 O          66.2790   92.9238   11.0595 O.2     1  UNL1       -0.4486
     17 C          64.1267   89.8247   14.0330 C.3     1  UNL1        0.0747
     18 C          63.7775   89.8756   15.4909 C.3     1  UNL1        0.0369
     19 C          63.5081   88.6058   16.2424 C.3     1  UNL1        0.0741
     20 N          63.5880   87.2848   15.5360 N.3     1  UNL1       -0.2688
     21 C          63.9372   87.2339   14.0781 C.3     1  UNL1        0.0741
     22 C          64.2065   88.5039   13.3266 C.3     1  UNL1        0.0369
     23 C          63.3186   86.0150   16.2876 C.3     1  UNL1        0.0992
     24 C          63.3573   84.6973   15.5719 C.ar    1  UNL1       -0.0029
     25 C          64.6419   84.2066   14.9727 C.ar    1  UNL1        0.0004
     26 C          64.6805   82.8890   14.2571 C.ar    1  UNL1        0.0399
     27 C          63.4346   82.0619   14.1405 C.ar    1  UNL1        0.1764
     28 C          62.1500   82.5526   14.7396 C.ar    1  UNL1        0.1762
     29 C          62.1114   83.8703   15.4553 C.ar    1  UNL1        0.0373
     30 O          61.0900   81.5266   14.4678 O.3     1  UNL1       -0.4346
     31 C          61.7196   80.4018   13.7007 C.3     1  UNL1        0.4294
     32 O          63.1686   80.7327   13.4984 O.3     1  UNL1       -0.4346
@<TRIPOS>BOND
     1     1     2    2
     2     2     3   am
     3     3    17    1
     4    17    18    1
     5    18    19    1
     6    19    20    1
     7    20    23    1
     8    23    24    1
     9    24    25   ar
    10    25    26   ar
    11    26    27   ar
    12    27    28   ar
    13    28    29   ar
    14    28    30    1
    15    30    31    1
    16    31    32    1
    17    20    21    1
    18    21    22    1
    19     2     5    1
    20     5     6   ar
    21     6     7   ar
    22     7     8    2
    23     7     9   ar
    24     9    10   ar
    25    10    11   ar
    26    11    12   ar
    27    12    13    1
    28    12    14   ar
    29    14    15   ar
    30    15    16   ar
    31    22    17    1
    32    16     5   ar
    33    29    24   ar
    34    15     9   ar
    35    32    27    1
    36     3     4    1
@<TRIPOS>MOLECULE
*****
 32 36 0 0 0
SMALL
GASTEIGER

@<TRIPOS>ATOM
      1 O          58.5135   91.2444    4.8867 O.2     1  UNL1       -0.2668
      2 C          59.8383   90.7769    5.4122 C.2     1  UNL1        0.2806
      3 N          61.1068   91.2038    4.7348 N.am    1  UNL1       -0.2999
      4 H          61.9763   90.8970    5.0797 H       1  UNL1        0.1498
      5 C          59.8948   89.8825    6.6151 C.ar    1  UNL1        0.2014
      6 C          59.0364   88.6540    6.6772 C.ar    1  UNL1        0.0843
      7 C          59.0929   87.7596    7.8800 C.ar    1  UNL1        0.2018
      8 O          58.2345   86.5311    7.9421 O.2     1  UNL1       -0.2864
      9 C          60.0077   88.0937    9.0208 C.ar    1  UNL1        0.0737
     10 C          60.0642   87.1994   10.2237 C.ar    1  UNL1        0.0085
     11 C          60.9790   87.5335   11.3644 C.ar    1  UNL1        0.0299
     12 C          61.8374   88.7621   11.3024 C.ar    1  UNL1        0.1432
     13 F          62.7523   89.0962   12.4432 F       1  UNL1       -0.2041
     14 C          61.7810   89.6565   10.0995 C.ar    1  UNL1        0.0672
     15 C          60.8661   89.3223    8.9588 C.ar    1  UNL1        0.1508
     16 O          60.8096   90.2167    7.7558 O.2     1  UNL1       -0.4486
     17 C          61.0503   92.0982    3.5320 C.3     1  UNL1        0.0747
     18 C          59.7504   92.7259    3.1244 C.3     1  UNL1        0.0369
     19 C          59.6940   93.6202    1.9215 C.3     1  UNL1        0.0741
     20 N          60.9375   93.8869    1.1262 N.3     1  UNL1       -0.2688
     21 C          62.2375   93.2592    1.5338 C.3     1  UNL1        0.0741
     22 C          62.2939   92.3648    2.7367 C.3     1  UNL1        0.0369
     23 C          60.8811   94.7813   -0.0767 C.3     1  UNL1        0.0992
     24 C          61.9507   94.6967   -1.1250 C.ar    1  UNL1       -0.0029
     25 C          62.9022   95.8398   -1.3195 C.ar    1  UNL1        0.0004
     26 C          63.9717   95.7553   -2.3678 C.ar    1  UNL1        0.0399
     27 C          64.0897   94.5277   -3.2216 C.ar    1  UNL1        0.1764
     28 C          63.1382   93.3846   -3.0271 C.ar    1  UNL1        0.1762
     29 C          62.0687   93.4691   -1.9788 C.ar    1  UNL1        0.0373
     30 O          63.4962   92.3107   -4.0114 O.3     1  UNL1       -0.4346
     31 C          64.6690   92.7902   -4.8142 C.3     1  UNL1        0.4294
     32 O          65.0358   94.1604   -4.3261 O.3     1  UNL1       -0.4346
@<TRIPOS>BOND
     1     1     2    2
     2     2     3   am
     3     3    17    1
     4    17    18    1
     5    18    19    1
     6    19    20    1
     7    20    23    1
     8    23    24    1
     9    24    25   ar
    10    25    26   ar
    11    26    27   ar
    12    27    28   ar
    13    28    29   ar
    14    28    30    1
    15    30    31    1
    16    31    32    1
    17    20    21    1
    18    21    22    1
    19     2     5    1
    20     5     6   ar
    21     6     7   ar
    22     7     8    2
    23     7     9   ar
    24     9    10   ar
    25    10    11   ar
    26    11    12   ar
    27    12    13    1
    28    12    14   ar
    29    14    15   ar
    30    15    16   ar
    31    22    17    1
    32    16     5   ar
    33    29    24   ar
    34    15     9   ar
    35    32    27    1
    36     3     4    1
