@<TRIPOS>MOLECULE
*****
 33 37 0 0 0
SMALL
GASTEIGER

@<TRIPOS>ATOM
      1 C          63.1537   89.1203   12.6961 C.ar    1  UNL1        0.3283
      2 N          63.5559   87.8050   13.2944 N.ar    1  UNL1       -0.1750
      3 C          63.0766   86.5235   12.6794 C.ar    1  UNL1        0.1668
      4 N          62.1952   86.5574   11.4662 N.ar    1  UNL1       -0.1946
      5 C          61.7931   87.8728   10.8679 C.ar    1  UNL1        0.2255
      6 N          62.2723   89.1543   11.4828 N.ar    1  UNL1       -0.1607
      7 C          63.4788   85.2081   13.2778 C.2     1  UNL1        0.0334
      8 C          63.6791   85.0881   14.7595 C.2     1  UNL1        0.0502
      9 C          64.0812   83.7728   15.3579 C.2     1  UNL1        0.2355
     10 N          64.2831   82.5773   14.4745 N.2     1  UNL1       -0.0341
     11 C          64.0828   82.6973   12.9928 C.2     1  UNL1        0.3594
     12 N          64.2079   81.7003   11.8791 N.2     1  UNL1       -0.0344
     13 C          63.8831   82.3995   10.5925 C.2     1  UNL1        0.2320
     14 C          63.5572   83.8286   10.9109 C.2     1  UNL1        0.0409
     15 C          63.6806   84.0127   12.3945 C.3     1  UNL1        0.1630
     16 N          60.9117   87.9067    9.6546 N.pl3   1  UNL1       -0.2729
     17 C          60.3961   86.6268    9.0662 C.3     1  UNL1        0.1257
     18 C          59.5146   86.6608    7.8528 C.3     1  UNL1        0.1637
     19 O          59.1490   87.9745    7.2281 O.3     1  UNL1       -0.3501
     20 C          59.6646   89.2543    7.8165 C.3     1  UNL1        0.1637
     21 C          60.5460   89.2204    9.0298 C.3     1  UNL1        0.1257
     22 O          63.6330   90.4018   13.3110 O.3     1  UNL1       -0.4222
     23 C          66.2035   93.2199   10.9233 C.ar    1  UNL1        0.0538
     24 C          65.0276   92.5484   10.2783 C.ar    1  UNL1        0.0076
     25 C          64.1707   91.6090   11.0741 C.ar    1  UNL1        0.0378
     26 C          64.4898   91.3412   12.5151 C.ar    1  UNL1        0.1487
     27 C          65.6657   92.0127   13.1602 C.ar    1  UNL1        0.0378
     28 C          66.5226   92.9521   12.3644 C.ar    1  UNL1        0.0076
     29 C          67.4462   96.4969    9.0614 C.3     1  UNL1        0.1152
     30 N          66.5894   95.5576    9.8572 N.am    1  UNL1       -0.2726
     31 C          65.2615   96.0164   10.3828 C.3     1  UNL1        0.1152
     32 C          67.0603   94.1593   10.1275 C.2     1  UNL1        0.2491
     33 O          68.3882   93.7004    9.6020 O.2     1  UNL1       -0.2699
@<TRIPOS>BOND
     1    29    30    1
     2    30    31    1
     3    30    32   am
     4    32    33    2
     5    32    23    1
     6    23    24   ar
     7    24    25   ar
     8    25    26   ar
     9    26    22    1
    10    22     1    1
    11     1     2   ar
    12     2     3   ar
    13     3     7    1
    14     7     8    2
    15     8     9    1
    16     9    10    2
    17    10    11    1
    18    11    12    2
    19    12    13    1
    20    13    14    2
    21    14    15    1
    22     3     4   ar
    23     4     5   ar
    24     5    16    1
    25    16    17    1
    26    17    18    1
    27    18    19    1
    28    19    20    1
    29    20    21    1
    30     5     6   ar
    31    26    27   ar
    32    27    28   ar
    33    28    23   ar
    34     6     1   ar
    35    15     7    1
    36    21    16    1
    37    15    11    1
@<TRIPOS>MOLECULE
*****
 33 37 0 0 0
SMALL
GASTEIGER

@<TRIPOS>ATOM
      1 C          64.1027   87.9438   14.4007 C.ar    1  UNL1        0.3283
      2 N          64.8804   89.2094   14.6083 N.ar    1  UNL1       -0.1750
      3 C          64.7188   90.3544   13.6527 C.ar    1  UNL1        0.1668
      4 N          63.7795   90.2336   12.4896 N.ar    1  UNL1       -0.1946
      5 C          63.0017   88.9679   12.2820 C.ar    1  UNL1        0.2255
      6 N          63.1633   87.8229   13.2375 N.ar    1  UNL1       -0.1607
      7 C          65.4966   91.6201   13.8604 C.2     1  UNL1        0.0334
      8 C          66.0787   91.9301   15.2076 C.2     1  UNL1        0.0502
      9 C          66.8564   93.1957   15.4153 C.2     1  UNL1        0.2355
     10 N          67.0521   94.1514   14.2758 N.2     1  UNL1       -0.0341
     11 C          66.4700   93.8414   12.9286 C.2     1  UNL1        0.3594
     12 N          66.4982   94.5870   11.6273 N.2     1  UNL1       -0.0344
     13 C          65.7378   93.7821   10.6154 C.2     1  UNL1        0.2320
     14 C          65.2397   92.5390   11.2913 C.2     1  UNL1        0.0409
     15 C          65.6922   92.5757   12.7209 C.3     1  UNL1        0.1630
     16 N          62.0623   88.8471   11.1188 N.pl3   1  UNL1       -0.2729
     17 C          61.1207   89.9692   10.7956 C.3     1  UNL1        0.1257
     18 C          60.1813   89.8483    9.6323 C.3     1  UNL1        0.1637
     19 O          60.1836   88.6056    8.7924 O.3     1  UNL1       -0.3501
     20 C          61.1252   87.4836    9.1156 C.3     1  UNL1        0.1637
     21 C          62.0646   87.6044   10.2788 C.3     1  UNL1        0.1257
     22 O          64.2643   86.7988   15.3562 O.3     1  UNL1       -0.4222
     23 C          63.4765   82.5885   13.9766 C.ar    1  UNL1        0.0538
     24 C          62.4741   83.2947   14.8406 C.ar    1  UNL1        0.0076
     25 C          62.7366   84.6981   15.3005 C.ar    1  UNL1        0.0378
     26 C          64.0017   85.3954   14.8964 C.ar    1  UNL1        0.1487
     27 C          65.0041   84.6893   14.0324 C.ar    1  UNL1        0.0378
     28 C          64.7416   83.2859   13.5725 C.ar    1  UNL1        0.0076
     29 C          62.7149   79.5010   11.6025 C.3     1  UNL1        0.1152
     30 N          62.9775   80.9043   12.0624 N.am    1  UNL1       -0.2726
     31 C          63.0037   82.0269   11.0679 C.3     1  UNL1        0.1152
     32 C          63.2139   81.1852   13.5168 C.2     1  UNL1        0.2491
     33 O          63.1877   80.0626   14.5113 O.2     1  UNL1       -0.2699
@<TRIPOS>BOND
     1    29    30    1
     2    30    31    1
     3    30    32   am
     4    32    33    2
     5    32    23    1
     6    23    24   ar
     7    24    25   ar
     8    25    26   ar
     9    26    22    1
    10    22     1    1
    11     1     2   ar
    12     2     3   ar
    13     3     7    1
    14     7     8    2
    15     8     9    1
    16     9    10    2
    17    10    11    1
    18    11    12    2
    19    12    13    1
    20    13    14    2
    21    14    15    1
    22     3     4   ar
    23     4     5   ar
    24     5    16    1
    25    16    17    1
    26    17    18    1
    27    18    19    1
    28    19    20    1
    29    20    21    1
    30     5     6   ar
    31    26    27   ar
    32    27    28   ar
    33    28    23   ar
    34     6     1   ar
    35    15     7    1
    36    21    16    1
    37    15    11    1
@<TRIPOS>MOLECULE
*****
 33 37 0 0 0
SMALL
GASTEIGER

@<TRIPOS>ATOM
      1 C          62.8824   88.4552   12.3229 C.ar    1  UNL1        0.3283
      2 N          63.3106   87.0520   12.6351 N.ar    1  UNL1       -0.1750
      3 C          62.8096   85.9114   11.7996 C.ar    1  UNL1        0.1668
      4 N          61.8804   86.1740   10.6517 N.ar    1  UNL1       -0.1946
      5 C          61.4522   87.5773   10.3395 C.ar    1  UNL1        0.2255
      6 N          61.9531   88.7179   11.1750 N.ar    1  UNL1       -0.1607
      7 C          63.2379   84.5082   12.1119 C.2     1  UNL1        0.0334
      8 C          63.7591   83.6223   11.0193 C.2     1  UNL1        0.0502
      9 C          64.1873   82.2192   11.3316 C.2     1  UNL1        0.2355
     10 N          64.0945   81.7017   12.7365 N.2     1  UNL1       -0.0341
     11 C          63.5733   82.5876   13.8291 C.2     1  UNL1        0.3594
     12 N          63.3685   82.3562   15.2969 N.2     1  UNL1       -0.0344
     13 C          62.8137   83.6165   15.8917 C.2     1  UNL1        0.2320
     14 C          62.6756   84.6267   14.7916 C.2     1  UNL1        0.0409
     15 C          63.1450   83.9908   13.5168 C.3     1  UNL1        0.1630
     16 N          60.5229   87.8400    9.1916 N.pl3   1  UNL1       -0.2729
     17 C          59.7574   86.7083    8.5723 C.3     1  UNL1        0.1257
     18 C          58.8281   86.9711    7.4244 C.3     1  UNL1        0.1637
     19 O          58.6645   88.3653    6.8960 O.3     1  UNL1       -0.3501
     20 C          59.4300   89.4968    7.5152 C.3     1  UNL1        0.1637
     21 C          60.3592   89.2342    8.6631 C.3     1  UNL1        0.1257
     22 O          63.3833   89.5958   13.1584 O.3     1  UNL1       -0.4222
     23 C          65.3474   93.1340   11.1902 C.ar    1  UNL1        0.0538
     24 C          64.3444   92.3154   10.4326 C.ar    1  UNL1        0.0076
     25 C          63.6897   91.1360   11.0886 C.ar    1  UNL1        0.0378
     26 C          64.0380   90.7752   12.5023 C.ar    1  UNL1        0.1487
     27 C          65.0410   91.5938   13.2599 C.ar    1  UNL1        0.0378
     28 C          65.6957   92.7731   12.6039 C.ar    1  UNL1        0.0076
     29 C          67.8930   95.3001    9.0508 C.3     1  UNL1        0.1152
     30 N          67.2384   94.1208    9.7068 N.am    1  UNL1       -0.2726
     31 C          67.8200   92.7488    9.5355 C.3     1  UNL1        0.1152
     32 C          66.0020   94.3134   10.5342 C.2     1  UNL1        0.2491
     33 O          65.4205   95.6854   10.7054 O.2     1  UNL1       -0.2699
@<TRIPOS>BOND
     1    29    30    1
     2    30    31    1
     3    30    32   am
     4    32    33    2
     5    32    23    1
     6    23    24   ar
     7    24    25   ar
     8    25    26   ar
     9    26    22    1
    10    22     1    1
    11     1     2   ar
    12     2     3   ar
    13     3     7    1
    14     7     8    2
    15     8     9    1
    16     9    10    2
    17    10    11    1
    18    11    12    2
    19    12    13    1
    20    13    14    2
    21    14    15    1
    22     3     4   ar
    23     4     5   ar
    24     5    16    1
    25    16    17    1
    26    17    18    1
    27    18    19    1
    28    19    20    1
    29    20    21    1
    30     5     6   ar
    31    26    27   ar
    32    27    28   ar
    33    28    23   ar
    34     6     1   ar
    35    15     7    1
    36    21    16    1
    37    15    11    1
@<TRIPOS>MOLECULE
*****
 33 37 0 0 0
SMALL
GASTEIGER

@<TRIPOS>ATOM
      1 C          64.1734   88.0572   14.4558 C.ar    1  UNL1        0.3283
      2 N          63.2105   87.9601   13.3099 N.ar    1  UNL1       -0.1750
      3 C          63.0439   89.1173   12.3701 C.ar    1  UNL1        0.1668
      4 N          63.8402   90.3717   12.5763 N.ar    1  UNL1       -0.1946
      5 C          64.8031   90.4688   13.7223 C.ar    1  UNL1        0.2255
      6 N          64.9698   89.3116   14.6621 N.ar    1  UNL1       -0.1607
      7 C          62.0809   89.0201   11.2241 C.2     1  UNL1        0.0334
      8 C          61.3696   90.2473   10.7360 C.2     1  UNL1        0.0502
      9 C          60.4068   90.1501    9.5901 C.2     1  UNL1        0.2355
     10 N          60.1551   88.8258    8.9321 N.2     1  UNL1       -0.0341
     11 C          60.8664   87.5987    9.4201 C.2     1  UNL1        0.3594
     12 N          60.8211   86.1677    8.9727 N.2     1  UNL1       -0.0344
     13 C          61.7562   85.3805    9.8422 C.2     1  UNL1        0.2320
     14 C          62.3792   86.3249   10.8270 C.2     1  UNL1        0.0409
     15 C          61.8293   87.6959   10.5661 C.3     1  UNL1        0.1630
     16 N          65.5994   91.7231   13.9286 N.pl3   1  UNL1       -0.2729
     17 C          65.6677   92.7553   12.8422 C.3     1  UNL1        0.1257
     18 C          66.4640   94.0097   13.0485 C.3     1  UNL1        0.1637
     19 O          67.1920   94.2317   14.3410 O.3     1  UNL1       -0.3501
     20 C          67.1238   93.1996   15.4273 C.3     1  UNL1        0.1637
     21 C          66.3275   91.9453   15.2211 C.3     1  UNL1        0.1257
     22 O          64.3400   86.9001   15.3956 O.3     1  UNL1       -0.4222
     23 C          63.5196   82.7103   13.9734 C.ar    1  UNL1        0.0538
     24 C          62.5366   83.4043   14.8689 C.ar    1  UNL1        0.0076
     25 C          62.8100   84.8010   15.3430 C.ar    1  UNL1        0.0378
     26 C          64.0665   85.5035   14.9216 C.ar    1  UNL1        0.1487
     27 C          65.0495   84.8094   14.0261 C.ar    1  UNL1        0.0378
     28 C          64.7761   83.4129   13.5520 C.ar    1  UNL1        0.0076
     29 C          62.7219   79.6548   11.5699 C.3     1  UNL1        0.1152
     30 N          62.9954   81.0513   12.0439 N.am    1  UNL1       -0.2726
     31 C          63.0182   82.1855   11.0626 C.3     1  UNL1        0.1152
     32 C          63.2461   81.3137   13.4994 C.2     1  UNL1        0.2491
     33 O          63.2233   80.1795   14.4808 O.2     1  UNL1       -0.2699
@<TRIPOS>BOND
     1    29    30    1
     2    30    31    1
     3    30    32   am
     4    32    33    2
     5    32    23    1
     6    23    24   ar
     7    24    25   ar
     8    25    26   ar
     9    26    22    1
    10    22     1    1
    11     1     2   ar
    12     2     3   ar
    13     3     7    1
    14     7     8    2
    15     8     9    1
    16     9    10    2
    17    10    11    1
    18    11    12    2
    19    12    13    1
    20    13    14    2
    21    14    15    1
    22     3     4   ar
    23     4     5   ar
    24     5    16    1
    25    16    17    1
    26    17    18    1
    27    18    19    1
    28    19    20    1
    29    20    21    1
    30     5     6   ar
    31    26    27   ar
    32    27    28   ar
    33    28    23   ar
    34     6     1   ar
    35    15     7    1
    36    21    16    1
    37    15    11    1
@<TRIPOS>MOLECULE
*****
 33 37 0 0 0
SMALL
GASTEIGER

@<TRIPOS>ATOM
      1 C          63.4487   89.2119   13.0130 C.ar    1  UNL1        0.3283
      2 N          62.6426   89.1654   11.7489 N.ar    1  UNL1       -0.1750
      3 C          62.1851   87.8467   11.1992 C.ar    1  UNL1        0.1668
      4 N          62.5338   86.5747   11.9136 N.ar    1  UNL1       -0.1946
      5 C          63.3400   86.6213   13.1777 C.ar    1  UNL1        0.2255
      6 N          63.7974   87.9398   13.7274 N.ar    1  UNL1       -0.1607
      7 C          61.3790   87.8002    9.9351 C.2     1  UNL1        0.0334
      8 C          60.3347   88.8445    9.6727 C.2     1  UNL1        0.0502
      9 C          59.5286   88.7980    8.4086 C.2     1  UNL1        0.2355
     10 N          59.7667   87.7072    7.4068 N.2     1  UNL1       -0.0341
     11 C          60.8110   86.6629    7.6692 C.2     1  UNL1        0.3594
     12 N          61.2661   85.4762    6.8726 N.2     1  UNL1       -0.0344
     13 C          62.3535   84.7893    7.6444 C.2     1  UNL1        0.2320
     14 C          62.5705   85.5515    8.9180 C.2     1  UNL1        0.0409
     15 C          61.6172   86.7095    8.9333 C.3     1  UNL1        0.1630
     16 N          63.6887   85.3493   13.8921 N.pl3   1  UNL1       -0.2729
     17 C          64.0644   84.1272   13.1076 C.3     1  UNL1        0.1257
     18 C          64.4131   82.8552   13.8221 C.3     1  UNL1        0.1637
     19 O          64.3860   82.8053   15.3209 O.3     1  UNL1       -0.3501
     20 C          64.0103   84.0273   16.1055 C.3     1  UNL1        0.1637
     21 C          63.6616   85.2993   15.3911 C.3     1  UNL1        0.1257
     22 O          63.9062   90.5304   13.5627 O.3     1  UNL1       -0.4222
     23 C          66.3183   93.3257   10.9901 C.ar    1  UNL1        0.0538
     24 C          66.7230   93.0787   12.4132 C.ar    1  UNL1        0.0076
     25 C          65.9190   92.1470   13.2708 C.ar    1  UNL1        0.0378
     26 C          64.7102   91.4622   12.7052 C.ar    1  UNL1        0.1487
     27 C          64.3055   91.7092   11.2821 C.ar    1  UNL1        0.0378
     28 C          65.1095   92.6409   10.4246 C.ar    1  UNL1        0.0076
     29 C          67.4033   96.5597    8.9619 C.3     1  UNL1        0.1152
     30 N          66.5993   95.6280    9.8194 N.am    1  UNL1       -0.2726
     31 C          65.2721   96.0667   10.3637 C.3     1  UNL1        0.1152
     32 C          67.1223   94.2574   10.1326 C.2     1  UNL1        0.2491
     33 O          68.4494   93.8187    9.5883 O.2     1  UNL1       -0.2699
@<TRIPOS>BOND
     1    29    30    1
     2    30    31    1
     3    30    32   am
     4    32    33    2
     5    32    23    1
     6    23    24   ar
     7    24    25   ar
     8    25    26   ar
     9    26    22    1
    10    22     1    1
    11     1     2   ar
    12     2     3   ar
    13     3     7    1
    14     7     8    2
    15     8     9    1
    16     9    10    2
    17    10    11    1
    18    11    12    2
    19    12    13    1
    20    13    14    2
    21    14    15    1
    22     3     4   ar
    23     4     5   ar
    24     5    16    1
    25    16    17    1
    26    17    18    1
    27    18    19    1
    28    19    20    1
    29    20    21    1
    30     5     6   ar
    31    26    27   ar
    32    27    28   ar
    33    28    23   ar
    34     6     1   ar
    35    15     7    1
    36    21    16    1
    37    15    11    1
@<TRIPOS>MOLECULE
*****
 33 37 0 0 0
SMALL
GASTEIGER

@<TRIPOS>ATOM
      1 C          63.6937   88.6311   13.3415 C.ar    1  UNL1        0.3283
      2 N          62.7216   88.3229   12.2416 N.ar    1  UNL1       -0.1750
      3 C          62.5151   89.3045   11.1262 C.ar    1  UNL1        0.1668
      4 N          63.2807   90.5943   11.1109 N.ar    1  UNL1       -0.1946
      5 C          64.2528   90.9025   12.2109 C.ar    1  UNL1        0.2255
      6 N          64.4594   89.9210   13.3262 N.ar    1  UNL1       -0.1607
      7 C          61.5430   88.9962   10.0262 C.2     1  UNL1        0.0334
      8 C          60.5087   90.0092    9.6336 C.2     1  UNL1        0.0502
      9 C          59.5367   89.7010    8.5337 C.2     1  UNL1        0.2355
     10 N          59.5987   88.3797    7.8262 N.2     1  UNL1       -0.0341
     11 C          60.6330   87.3667    8.2188 C.2     1  UNL1        0.3594
     12 N          60.9346   85.9897    7.7060 N.2     1  UNL1       -0.0344
     13 C          62.0931   85.4470    8.4891 C.2     1  UNL1        0.2320
     14 C          62.5075   86.4885    9.4859 C.2     1  UNL1        0.0409
     15 C          61.6051   87.6750    9.3188 C.3     1  UNL1        0.1630
     16 N          65.0185   92.1923   12.1956 N.pl3   1  UNL1       -0.2729
     17 C          65.7248   92.6600   13.4336 C.3     1  UNL1        0.1257
     18 C          66.4904   93.9499   13.4182 C.3     1  UNL1        0.1637
     19 O          66.5497   94.7719   12.1650 O.3     1  UNL1       -0.3501
     20 C          65.8434   94.3042   10.9271 C.3     1  UNL1        0.1637
     21 C          65.0778   93.0144   10.9424 C.3     1  UNL1        0.1257
     22 O          63.9002   87.6496   14.4568 O.3     1  UNL1       -0.4222
     23 C          63.7696   83.2303   13.6180 C.ar    1  UNL1        0.0538
     24 C          63.2952   84.2049   12.5811 C.ar    1  UNL1        0.0076
     25 C          63.3387   85.6780   12.8606 C.ar    1  UNL1        0.0378
     26 C          63.8567   86.1765   14.1772 C.ar    1  UNL1        0.1487
     27 C          64.3310   85.2019   15.2140 C.ar    1  UNL1        0.0378
     28 C          64.2875   83.7289   14.9345 C.ar    1  UNL1        0.0076
     29 C          62.4592   79.4902   13.4095 C.3     1  UNL1        0.1152
     30 N          62.5027   80.9631   13.6891 N.am    1  UNL1       -0.2726
     31 C          61.3230   81.6421   14.3194 C.3     1  UNL1        0.1152
     32 C          63.7260   81.7573   13.3384 C.2     1  UNL1        0.2491
     33 O          64.9057   81.0784   12.7081 O.2     1  UNL1       -0.2699
@<TRIPOS>BOND
     1    29    30    1
     2    30    31    1
     3    30    32   am
     4    32    33    2
     5    32    23    1
     6    23    24   ar
     7    24    25   ar
     8    25    26   ar
     9    26    22    1
    10    22     1    1
    11     1     2   ar
    12     2     3   ar
    13     3     7    1
    14     7     8    2
    15     8     9    1
    16     9    10    2
    17    10    11    1
    18    11    12    2
    19    12    13    1
    20    13    14    2
    21    14    15    1
    22     3     4   ar
    23     4     5   ar
    24     5    16    1
    25    16    17    1
    26    17    18    1
    27    18    19    1
    28    19    20    1
    29    20    21    1
    30     5     6   ar
    31    26    27   ar
    32    27    28   ar
    33    28    23   ar
    34     6     1   ar
    35    15     7    1
    36    21    16    1
    37    15    11    1
@<TRIPOS>MOLECULE
*****
 33 37 0 0 0
SMALL
GASTEIGER

@<TRIPOS>ATOM
      1 C          63.7560   88.3445   13.4451 C.ar    1  UNL1        0.3283
      2 N          64.4898   89.6527   13.4457 N.ar    1  UNL1       -0.1750
      3 C          64.2778   90.6322   12.3295 C.ar    1  UNL1        0.1668
      4 N          63.3319   90.3034   11.2128 N.ar    1  UNL1       -0.1946
      5 C          62.5981   88.9951   11.2121 C.ar    1  UNL1        0.2255
      6 N          62.8101   88.0157   12.3282 N.ar    1  UNL1       -0.1607
      7 C          65.0117   91.9404   12.3302 C.2     1  UNL1        0.0334
      8 C          65.0106   92.8016   11.1021 C.2     1  UNL1        0.0502
      9 C          65.7445   94.1097   11.1028 C.2     1  UNL1        0.2355
     10 N          66.4795   94.5568   12.3316 N.2     1  UNL1       -0.0341
     11 C          66.4805   93.6956   13.5598 C.2     1  UNL1        0.3594
     12 N          67.1114   93.8725   14.9091 N.2     1  UNL1       -0.0344
     13 C          66.7675   92.6736   15.7423 C.2     1  UNL1        0.2320
     14 C          65.9240   91.7558   14.9080 C.2     1  UNL1        0.0409
     15 C          65.7466   92.3874   13.5591 C.3     1  UNL1        0.1630
     16 N          61.6522   88.6664   10.0954 N.pl3   1  UNL1       -0.2729
     17 C          60.7685   89.7344    9.5220 C.3     1  UNL1        0.1257
     18 C          59.8226   89.4055    8.4052 C.3     1  UNL1        0.1637
     19 O          59.7605   88.0089    7.8618 O.3     1  UNL1       -0.3501
     20 C          60.6442   86.9409    8.4350 C.3     1  UNL1        0.1637
     21 C          61.5900   87.2697    9.5518 C.3     1  UNL1        0.1257
     22 O          63.9680   87.3651   14.5612 O.3     1  UNL1       -0.4222
     23 C          62.5864   83.1062   14.1101 C.ar    1  UNL1        0.0538
     24 C          62.7832   83.9635   12.8951 C.ar    1  UNL1        0.0076
     25 C          63.2437   85.3832   13.0454 C.ar    1  UNL1        0.0378
     26 C          63.5075   85.9454   14.4108 C.ar    1  UNL1        0.1487
     27 C          63.3107   85.0881   15.6258 C.ar    1  UNL1        0.0378
     28 C          62.8502   83.6685   15.4755 C.ar    1  UNL1        0.0076
     29 C          62.5145   79.2777   13.0676 C.3     1  UNL1        0.1152
     30 N          62.9750   80.6972   13.2179 N.am    1  UNL1       -0.2726
     31 C          64.2846   81.1275   12.6265 C.3     1  UNL1        0.1152
     32 C          62.1259   81.6866   13.9598 C.2     1  UNL1        0.2491
     33 O          60.8164   81.2563   14.5512 O.2     1  UNL1       -0.2699
@<TRIPOS>BOND
     1    29    30    1
     2    30    31    1
     3    30    32   am
     4    32    33    2
     5    32    23    1
     6    23    24   ar
     7    24    25   ar
     8    25    26   ar
     9    26    22    1
    10    22     1    1
    11     1     2   ar
    12     2     3   ar
    13     3     7    1
    14     7     8    2
    15     8     9    1
    16     9    10    2
    17    10    11    1
    18    11    12    2
    19    12    13    1
    20    13    14    2
    21    14    15    1
    22     3     4   ar
    23     4     5   ar
    24     5    16    1
    25    16    17    1
    26    17    18    1
    27    18    19    1
    28    19    20    1
    29    20    21    1
    30     5     6   ar
    31    26    27   ar
    32    27    28   ar
    33    28    23   ar
    34     6     1   ar
    35    15     7    1
    36    21    16    1
    37    15    11    1
@<TRIPOS>MOLECULE
*****
 33 37 0 0 0
SMALL
GASTEIGER

@<TRIPOS>ATOM
      1 C          64.0792   86.8102   14.1728 C.ar    1  UNL1        0.3283
      2 N          64.5590   88.1149   14.7360 N.ar    1  UNL1       -0.1750
      3 C          64.2146   89.4016   14.0460 C.ar    1  UNL1        0.1668
      4 N          63.3904   89.3835   12.7929 N.ar    1  UNL1       -0.1946
      5 C          62.9106   88.0786   12.2297 C.ar    1  UNL1        0.2255
      6 N          63.2550   86.7919   12.9196 N.ar    1  UNL1       -0.1607
      7 C          64.6944   90.7064   14.6093 C.2     1  UNL1        0.0334
      8 C          64.3690   91.0768   16.0259 C.2     1  UNL1        0.0502
      9 C          64.8487   92.3815   16.5892 C.2     1  UNL1        0.2355
     10 N          65.6541   93.3160   15.7358 N.2     1  UNL1       -0.0341
     11 C          65.9796   92.9457   14.3192 C.2     1  UNL1        0.3594
     12 N          66.7487   93.6587   13.2468 N.2     1  UNL1       -0.0344
     13 C          66.7443   92.7945   12.0208 C.2     1  UNL1        0.2320
     14 C          65.9724   91.5475   12.3354 C.2     1  UNL1        0.0409
     15 C          65.4997   91.6409   13.7559 C.3     1  UNL1        0.1630
     16 N          62.0864   88.0604   10.9765 N.pl3   1  UNL1       -0.2729
     17 C          61.8777   86.7735   10.2347 C.3     1  UNL1        0.1257
     18 C          61.0535   86.7554    8.9815 C.3     1  UNL1        0.1637
     19 O          60.4381   88.0241    8.4703 O.3     1  UNL1       -0.3501
     20 C          60.6467   89.3110    9.2121 C.3     1  UNL1        0.1637
     21 C          61.4709   89.3292   10.4652 C.3     1  UNL1        0.1257
     22 O          64.4235   85.5235   14.8626 O.3     1  UNL1       -0.4222
     23 C          63.1417   81.5983   13.0739 C.ar    1  UNL1        0.0538
     24 C          64.3892   82.2731   12.5859 C.ar    1  UNL1        0.0076
     25 C          64.8165   83.5815   13.1821 C.ar    1  UNL1        0.0378
     26 C          63.9963   84.2151   14.2664 C.ar    1  UNL1        0.1487
     27 C          62.7487   83.5403   14.7545 C.ar    1  UNL1        0.0378
     28 C          62.3214   82.2319   14.1583 C.ar    1  UNL1        0.0076
     29 C          62.4692   78.7311   10.4138 C.3     1  UNL1        0.1152
     30 N          62.8965   80.0394   11.0100 N.am    1  UNL1       -0.2726
     31 C          63.5058   81.0973   10.1386 C.3     1  UNL1        0.1152
     32 C          62.7144   80.2899   12.4778 C.2     1  UNL1        0.2491
     33 O          62.1051   79.2320   13.3492 O.2     1  UNL1       -0.2699
@<TRIPOS>BOND
     1    29    30    1
     2    30    31    1
     3    30    32   am
     4    32    33    2
     5    32    23    1
     6    23    24   ar
     7    24    25   ar
     8    25    26   ar
     9    26    22    1
    10    22     1    1
    11     1     2   ar
    12     2     3   ar
    13     3     7    1
    14     7     8    2
    15     8     9    1
    16     9    10    2
    17    10    11    1
    18    11    12    2
    19    12    13    1
    20    13    14    2
    21    14    15    1
    22     3     4   ar
    23     4     5   ar
    24     5    16    1
    25    16    17    1
    26    17    18    1
    27    18    19    1
    28    19    20    1
    29    20    21    1
    30     5     6   ar
    31    26    27   ar
    32    27    28   ar
    33    28    23   ar
    34     6     1   ar
    35    15     7    1
    36    21    16    1
    37    15    11    1
@<TRIPOS>MOLECULE
*****
 33 37 0 0 0
SMALL
GASTEIGER

@<TRIPOS>ATOM
      1 C          63.4089   86.8750   13.5426 C.ar    1  UNL1        0.3283
      2 N          62.6938   87.4648   12.3635 N.ar    1  UNL1       -0.1750
      3 C          62.0407   86.5658   11.3558 C.ar    1  UNL1        0.1668
      4 N          62.1028   85.0770   11.5273 N.ar    1  UNL1       -0.1946
      5 C          62.8180   84.4871   12.7066 C.ar    1  UNL1        0.2255
      6 N          63.4711   85.3861   13.7143 N.ar    1  UNL1       -0.1607
      7 C          61.3255   87.1557   10.1765 C.2     1  UNL1        0.0334
      8 C          61.1875   86.3639    8.9101 C.2     1  UNL1        0.0502
      9 C          60.4724   86.9537    7.7309 C.2     1  UNL1        0.2355
     10 N          59.8952   88.3355    7.8181 N.2     1  UNL1       -0.0341
     11 C          60.0332   89.1274    9.0845 C.2     1  UNL1        0.3594
     12 N          59.5711   90.5032    9.4634 N.2     1  UNL1       -0.0344
     13 C          60.0006   90.7636   10.8768 C.2     1  UNL1        0.2320
     14 C          60.7282   89.5487   11.3714 C.2     1  UNL1        0.0409
     15 C          60.7484   88.5375   10.2638 C.3     1  UNL1        0.1630
     16 N          62.8801   82.9983   12.8782 N.pl3   1  UNL1       -0.2729
     17 C          62.9464   82.4039   14.2539 C.3     1  UNL1        0.1257
     18 C          63.0085   80.9150   14.4254 C.3     1  UNL1        0.1637
     19 O          63.0042   80.0206   13.2214 O.3     1  UNL1       -0.3501
     20 C          62.9379   80.6149   11.8457 C.3     1  UNL1        0.1637
     21 C          62.8758   82.1037   11.6741 C.3     1  UNL1        0.1257
     22 O          64.0620   87.7739   14.5503 O.3     1  UNL1       -0.4222
     23 C          65.4021   91.8990   13.3510 C.ar    1  UNL1        0.0538
     24 C          66.1510   91.1453   14.4098 C.ar    1  UNL1        0.0076
     25 C          65.7044   89.7703   14.8096 C.ar    1  UNL1        0.0378
     26 C          64.5087   89.1489   14.1505 C.ar    1  UNL1        0.1487
     27 C          63.7598   89.9026   13.0917 C.ar    1  UNL1        0.0378
     28 C          64.2064   91.2776   12.6919 C.ar    1  UNL1        0.0076
     29 C          66.3992   95.0113   11.0996 C.3     1  UNL1        0.1152
     30 N          65.9525   93.6364   11.4993 N.am    1  UNL1       -0.2726
     31 C          65.6095   92.6237   10.4472 C.3     1  UNL1        0.1152
     32 C          65.8488   93.2739   12.9512 C.2     1  UNL1        0.2491
     33 O          66.1918   94.2866   14.0033 O.2     1  UNL1       -0.2699
@<TRIPOS>BOND
     1    29    30    1
     2    30    31    1
     3    30    32   am
     4    32    33    2
     5    32    23    1
     6    23    24   ar
     7    24    25   ar
     8    25    26   ar
     9    26    22    1
    10    22     1    1
    11     1     2   ar
    12     2     3   ar
    13     3     7    1
    14     7     8    2
    15     8     9    1
    16     9    10    2
    17    10    11    1
    18    11    12    2
    19    12    13    1
    20    13    14    2
    21    14    15    1
    22     3     4   ar
    23     4     5   ar
    24     5    16    1
    25    16    17    1
    26    17    18    1
    27    18    19    1
    28    19    20    1
    29    20    21    1
    30     5     6   ar
    31    26    27   ar
    32    27    28   ar
    33    28    23   ar
    34     6     1   ar
    35    15     7    1
    36    21    16    1
    37    15    11    1
