@<TRIPOS>MOLECULE
*****
 55 60 0 0 0
SMALL
GASTEIGER

@<TRIPOS>ATOM
      1 N          62.8845   84.0494    9.5571 N.3     1  UNL1       -0.1862
      2 C          62.2056   84.1058    8.2207 C.3     1  UNL1        0.1775
      3 C          61.4005   85.3125    7.8389 C.2     1  UNL1        0.2452
      4 O          60.7216   85.3689    6.5025 O.2     1  UNL1       -0.2732
      5 N          61.2745   86.4628    8.7933 N.am    1  UNL1       -0.2541
      6 C          60.4695   87.6695    8.4114 C.3     1  UNL1        0.1577
      7 C          60.3434   88.8197    9.3659 C.2     1  UNL1        0.2445
      8 O          59.5384   90.0264    8.9840 O.2     1  UNL1       -0.2731
      9 N          61.0224   88.7633   10.7023 N.am    1  UNL1       -0.2705
     10 C          61.8274   87.5566   11.0842 C.3     1  UNL1        0.1359
     11 C          61.9534   86.4063   10.1296 C.3     1  UNL1        0.1908
     12 N          62.7585   85.1996   10.5115 N.am    1  UNL1       -0.1863
     13 C          63.4374   85.1432   11.8479 C.2     1  UNL1        0.3191
     14 O          63.3114   86.2934   12.8023 O.2     1  UNL1       -0.2512
     15 N          64.2425   83.9365   12.2298 N.am    1  UNL1       -0.2836
     16 H          64.3252   83.1815   11.6033 H       1  UNL1        0.1513
     17 C          63.6895   82.8427    9.9389 C.3     1  UNL1        0.1188
     18 C          62.8138   81.1451   11.7000 C.2     1  UNL1       -0.0034
     19 C          62.9978   81.5531   10.2683 C.2     1  UNL1       -0.0071
     20 C          59.7905   87.7259    7.0751 C.3     1  UNL1        0.0556
     21 C          59.5676   89.0479    6.4024 C.ar    1  UNL1       -0.0198
     22 C          60.7284   89.7975    5.8187 C.ar    1  UNL1       -0.0011
     23 C          60.5055   91.1196    5.1459 C.ar    1  UNL1        0.0363
     24 C          59.1219   91.6919    5.0568 C.ar    1  UNL1        0.1337
     25 O          58.8990   93.0139    4.3840 O.3     1  UNL1       -0.5055
     26 C          57.9611   90.9423    5.6405 C.ar    1  UNL1        0.0363
     27 C          58.1839   89.6203    6.3133 C.ar    1  UNL1       -0.0011
     28 H          59.6241   93.4822    4.0194 H       1  UNL1        0.2922
     29 C          60.8963   89.9135   11.6567 C.3     1  UNL1        0.1217
     30 C          62.0248   90.2418   12.5889 C.ar    1  UNL1        0.0135
     31 C          61.9600   89.8135   14.0250 C.ar    1  UNL1       -0.0012
     32 C          63.0883   90.1417   14.9572 C.ar    1  UNL1       -0.0002
     33 C          64.2815   90.8982   14.4533 C.ar    1  UNL1        0.0016
     34 C          64.3464   91.3264   13.0172 C.ar    1  UNL1        0.0214
     35 C          65.3859   92.0783   12.2400 C.ar    1  UNL1        0.0719
     36 C          64.8999   92.2148   10.8275 C.ar    1  UNL1        0.0805
     37 N          63.5602   91.5473   10.7317 N.ar    1  UNL1       -0.3241
     38 C          62.7114   91.4465    9.4990 C.3     1  UNL1        0.1305
     39 C          63.2180   90.9982   12.0850 C.ar    1  UNL1        0.0577
     40 C          66.6836   92.6018   12.7804 C.2     1  UNL1        0.2474
     41 O          66.8164   94.0526   13.1380 O.2     1  UNL1       -0.2701
     42 N          67.8484   91.6747   12.9633 N.am    1  UNL1       -0.2994
     43 H          67.7612   90.7225   12.7287 H       1  UNL1        0.1498
     44 C          69.1461   92.1981   13.5038 C.3     1  UNL1        0.1070
     45 C          69.3683   92.2666   14.9856 C.3     1  UNL1        0.0937
     46 N          68.5354   93.1876   15.8271 N.3     1  UNL1       -0.2689
     47 C          67.1979   92.7362   16.3342 C.3     1  UNL1        0.0897
     48 C          69.0401   94.5601   16.1614 C.3     1  UNL1        0.0897
     49 C          64.9214   83.8800   13.5661 C.3     1  UNL1        0.1177
     50 C          64.3120   84.5758   14.7470 C.ar    1  UNL1       -0.0025
     51 C          64.8427   85.9073   15.1890 C.ar    1  UNL1       -0.0026
     52 C          64.2333   86.6030   16.3699 C.ar    1  UNL1       -0.0003
     53 C          63.0932   85.9673   17.1088 C.ar    1  UNL1       -0.0000
     54 C          62.5624   84.6358   16.6667 C.ar    1  UNL1       -0.0003
     55 C          63.1718   83.9400   15.4858 C.ar    1  UNL1       -0.0026
@<TRIPOS>BOND
     1    18    19    2
     2    19    17    1
     3    17     1    1
     4     1     2    1
     5     2     3    1
     6     3     4    2
     7     3     5   am
     8     5     6    1
     9     6    20    1
    10    20    21    1
    11    21    22   ar
    12    22    23   ar
    13    23    24   ar
    14    24    25    1
    15    24    26   ar
    16    26    27   ar
    17     6     7    1
    18     7     8    2
    19     7     9   am
    20     9    29    1
    21    29    30    1
    22    30    31   ar
    23    31    32   ar
    24    32    33   ar
    25    33    34   ar
    26    34    35   ar
    27    35    40    1
    28    40    41    2
    29    40    42   am
    30    42    44    1
    31    44    45    1
    32    45    46    1
    33    46    47    1
    34    46    48    1
    35    35    36   ar
    36    36    37   ar
    37    37    38    1
    38    37    39   ar
    39     9    10    1
    40    11    10    1
    41    11    12    1
    42    12    13   am
    43    13    14    2
    44    13    15   am
    45    15    49    1
    46    49    50    1
    47    50    51   ar
    48    51    52   ar
    49    52    53   ar
    50    53    54   ar
    51    54    55   ar
    52    12     1    1
    53    55    50   ar
    54    11     5    1
    55    27    21   ar
    56    39    30   ar
    57    39    34   ar
    58    25    28    1
    59    42    43    1
    60    15    16    1
