@<TRIPOS>MOLECULE
*****
 27 30 0 0 0
SMALL
GASTEIGER

@<TRIPOS>ATOM
      1 C          59.2579   88.8673    7.2312 C.3     1  UNL1        0.0523
      2 C          60.0175   88.4437    8.4533 C.ar    1  UNL1        0.0653
      3 C          60.3081   89.4383    9.5380 C.ar    1  UNL1        0.0490
      4 C          61.0677   89.0147   10.7601 C.ar    1  UNL1        0.1342
      5 N          61.5367   87.5965   10.8976 N.ar    1  UNL1       -0.1816
      6 N          62.3011   86.8926   11.9793 N.ar    1  UNL1       -0.1409
      7 C          62.4829   85.4629   11.5632 C.ar    1  UNL1        0.2227
      8 N          61.8309   85.2833   10.2243 N.ar    1  UNL1       -0.1880
      9 C          61.2461   86.6019    9.8130 C.ar    1  UNL1        0.2552
     10 N          60.4865   87.0255    8.5908 N.ar    1  UNL1       -0.2142
     11 C          63.1923   84.3996   12.3482 C.3     1  UNL1        0.3163
     12 C          63.9016   83.3363   13.1332 C.3     1  UNL1        0.0805
     13 F          62.5071   83.3419   11.5347 F       1  UNL1       -0.1962
     14 F          63.8774   85.4572   13.1617 F       1  UNL1       -0.1962
     15 N          61.3583   90.0092   11.8447 N.pl3   1  UNL1       -0.3192
     16 H          60.6652   90.2310   12.5078 H       1  UNL1        0.1482
     17 C          62.7050   90.6657   11.9192 C.3     1  UNL1        0.0750
     18 C          63.2807   91.3359   10.7070 C.3     1  UNL1        0.0245
     19 C          64.6273   91.9924   10.7815 C.3     1  UNL1        0.0277
     20 C          65.3983   91.9787   12.0681 C.ar    1  UNL1       -0.0260
     21 C          66.7449   92.6352   12.1425 C.ar    1  UNL1       -0.0037
     22 C          67.5159   92.6215   13.4291 C.ar    1  UNL1        0.0111
     23 C          66.9402   91.9512   14.6413 C.ar    1  UNL1        0.0573
     24 CL         67.7112   91.9374   15.9280 Cl      1  UNL1       -0.0823
     25 C          65.5936   91.2947   14.5669 C.ar    1  UNL1        0.0069
     26 C          64.8226   91.3084   13.2802 C.ar    1  UNL1       -0.0236
     27 C          63.4760   90.6520   13.2058 C.3     1  UNL1        0.0456
@<TRIPOS>BOND
     1     1     2    1
     2     2     3   ar
     3     3     4   ar
     4     4    15    1
     5    17    15    1
     6    17    18    1
     7    18    19    1
     8    19    20    1
     9    20    21   ar
    10    21    22   ar
    11    22    23   ar
    12    23    24    1
    13    23    25   ar
    14    25    26   ar
    15    26    27    1
    16     4     5   ar
    17     5     6   ar
    18     6     7   ar
    19     7    11    1
    20    11    12    1
    21    11    13    1
    22    11    14    1
    23     7     8   ar
    24     8     9   ar
    25     9    10   ar
    26    10     2   ar
    27    27    17    1
    28     9     5   ar
    29    26    20   ar
    30    15    16    1
@<TRIPOS>MOLECULE
*****
 27 30 0 0 0
SMALL
GASTEIGER

@<TRIPOS>ATOM
      1 C          59.3772   88.9210    7.3510 C.3     1  UNL1        0.0523
      2 C          60.0988   88.3447    8.5330 C.ar    1  UNL1        0.0653
      3 C          60.2453   89.1519    9.7888 C.ar    1  UNL1        0.0490
      4 C          60.9669   88.5756   10.9709 C.ar    1  UNL1        0.1342
      5 N          61.5420   87.1922   10.8971 N.ar    1  UNL1       -0.1816
      6 N          62.2992   86.3656   11.8937 N.ar    1  UNL1       -0.1409
      7 C          62.6207   85.0475   11.2538 C.ar    1  UNL1        0.2227
      8 N          62.0621   85.0596    9.8618 N.ar    1  UNL1       -0.1880
      9 C          61.3954   86.3850    9.6413 C.ar    1  UNL1        0.2552
     10 N          60.6738   86.9613    8.4593 N.ar    1  UNL1       -0.2142
     11 C          63.3693   83.9160   11.8938 C.3     1  UNL1        0.3163
     12 C          64.1179   82.7847   12.5337 C.3     1  UNL1        0.0805
     13 F          64.0936   83.6659   10.6043 F       1  UNL1       -0.1962
     14 F          62.6450   84.1662   13.1832 F       1  UNL1       -0.1962
     15 N          61.1135   89.3828   12.2266 N.pl3   1  UNL1       -0.3192
     16 H          60.3589   89.4576   12.8546 H       1  UNL1        0.1482
     17 C          62.4097   90.0760   12.5257 C.3     1  UNL1        0.0750
     18 C          63.0346   89.9449   13.8830 C.3     1  UNL1        0.0245
     19 C          64.3308   90.6381   14.1820 C.3     1  UNL1        0.0277
     20 C          65.0020   91.4624   13.1237 C.ar    1  UNL1       -0.0260
     21 C          66.2982   92.1556   13.4227 C.ar    1  UNL1       -0.0037
     22 C          66.9694   92.9799   12.3645 C.ar    1  UNL1        0.0111
     23 C          66.3444   93.1110   11.0071 C.ar    1  UNL1        0.0573
     24 CL         67.0157   93.9353    9.9489 Cl      1  UNL1       -0.0823
     25 C          65.0483   92.4178   10.7081 C.ar    1  UNL1        0.0069
     26 C          64.3771   91.5935   11.7664 C.ar    1  UNL1       -0.0236
     27 C          63.0809   90.9003   11.4674 C.3     1  UNL1        0.0456
@<TRIPOS>BOND
     1     1     2    1
     2     2     3   ar
     3     3     4   ar
     4     4    15    1
     5    17    15    1
     6    17    18    1
     7    18    19    1
     8    19    20    1
     9    20    21   ar
    10    21    22   ar
    11    22    23   ar
    12    23    24    1
    13    23    25   ar
    14    25    26   ar
    15    26    27    1
    16     4     5   ar
    17     5     6   ar
    18     6     7   ar
    19     7    11    1
    20    11    12    1
    21    11    13    1
    22    11    14    1
    23     7     8   ar
    24     8     9   ar
    25     9    10   ar
    26    10     2   ar
    27    27    17    1
    28     9     5   ar
    29    26    20   ar
    30    15    16    1
@<TRIPOS>MOLECULE
*****
 27 30 0 0 0
SMALL
GASTEIGER

@<TRIPOS>ATOM
      1 C          62.6572   79.9768   13.0023 C.3     1  UNL1        0.0523
      2 C          62.8241   81.4674   13.0212 C.ar    1  UNL1        0.0653
      3 C          63.5229   82.1293   14.1717 C.ar    1  UNL1        0.0490
      4 C          63.6898   83.6199   14.1906 C.ar    1  UNL1        0.1342
      5 N          63.1579   84.4485   13.0589 N.ar    1  UNL1       -0.1816
      6 N          63.1735   85.9265   12.8035 N.ar    1  UNL1       -0.1409
      7 C          62.4844   86.1780   11.4951 C.ar    1  UNL1        0.2227
      8 N          62.0429   84.8555   10.9420 N.ar    1  UNL1       -0.1880
      9 C          62.4592   83.7866   11.9085 C.ar    1  UNL1        0.2552
     10 N          62.2923   82.2960   11.8896 N.ar    1  UNL1       -0.2142
     11 C          62.2737   87.5170   10.8527 C.3     1  UNL1        0.3163
     12 C          62.0630   88.8560   10.2102 C.3     1  UNL1        0.0805
     13 F          63.1543   88.1522   11.8876 F       1  UNL1       -0.1962
     14 F          61.3931   86.8819    9.8178 F       1  UNL1       -0.1962
     15 N          64.3885   84.2818   15.3410 N.pl3   1  UNL1       -0.3192
     16 H          65.0561   83.7825   15.8647 H       1  UNL1        0.1482
     17 C          64.0700   85.7046   15.6937 C.3     1  UNL1        0.0750
     18 C          63.1886   86.0067   16.8692 C.3     1  UNL1        0.0245
     19 C          62.8701   87.4294   17.2218 C.3     1  UNL1        0.0277
     20 C          63.4332   88.5501   16.3990 C.ar    1  UNL1       -0.0260
     21 C          63.1147   89.9729   16.7516 C.ar    1  UNL1       -0.0037
     22 C          63.6778   91.0936   15.9288 C.ar    1  UNL1        0.0111
     23 C          64.5593   90.7914   14.7533 C.ar    1  UNL1        0.0573
     24 CL         65.1223   91.9121   13.9305 Cl      1  UNL1       -0.0823
     25 C          64.8777   89.3687   14.4007 C.ar    1  UNL1        0.0069
     26 C          64.3147   88.2480   15.2235 C.ar    1  UNL1       -0.0236
     27 C          64.6331   86.8253   14.8709 C.3     1  UNL1        0.0456
@<TRIPOS>BOND
     1     1     2    1
     2     2     3   ar
     3     3     4   ar
     4     4    15    1
     5    17    15    1
     6    17    18    1
     7    18    19    1
     8    19    20    1
     9    20    21   ar
    10    21    22   ar
    11    22    23   ar
    12    23    24    1
    13    23    25   ar
    14    25    26   ar
    15    26    27    1
    16     4     5   ar
    17     5     6   ar
    18     6     7   ar
    19     7    11    1
    20    11    12    1
    21    11    13    1
    22    11    14    1
    23     7     8   ar
    24     8     9   ar
    25     9    10   ar
    26    10     2   ar
    27    27    17    1
    28     9     5   ar
    29    26    20   ar
    30    15    16    1
@<TRIPOS>MOLECULE
*****
 27 30 0 0 0
SMALL
GASTEIGER

@<TRIPOS>ATOM
      1 C          62.2622   79.4626   13.0687 C.3     1  UNL1        0.0523
      2 C          62.5792   80.9133   13.2811 C.ar    1  UNL1        0.0653
      3 C          63.1467   81.7292   12.1575 C.ar    1  UNL1        0.0490
      4 C          63.4637   83.1798   12.3698 C.ar    1  UNL1        0.1342
      5 N          63.2132   83.8146   13.7057 N.ar    1  UNL1       -0.1816
      6 N          63.4251   85.2118   14.2085 N.ar    1  UNL1       -0.1409
      7 C          62.9885   85.2594   15.6428 C.ar    1  UNL1        0.2227
      8 N          62.5068   83.8916   16.0263 N.ar    1  UNL1       -0.1880
      9 C          62.6457   82.9987   14.8291 C.ar    1  UNL1        0.2552
     10 N          62.3287   81.5480   14.6168 N.ar    1  UNL1       -0.2142
     11 C          63.0269   86.4635   16.5366 C.3     1  UNL1        0.3163
     12 C          63.0653   87.6675   17.4304 C.3     1  UNL1        0.0805
     13 F          64.1082   87.0607   15.6857 F       1  UNL1       -0.1962
     14 F          61.9456   85.8663   17.3875 F       1  UNL1       -0.1962
     15 N          64.0312   83.9958   11.2464 N.pl3   1  UNL1       -0.3192
     16 H          64.9808   83.9050   11.0029 H       1  UNL1        0.1482
     17 C          63.1519   84.9500   10.4938 C.3     1  UNL1        0.0750
     18 C          62.8996   84.7420    9.0300 C.3     1  UNL1        0.0245
     19 C          62.0203   85.6962    8.2775 C.3     1  UNL1        0.0277
     20 C          61.3934   86.8585    8.9889 C.ar    1  UNL1       -0.0260
     21 C          60.5141   87.8128    8.2363 C.ar    1  UNL1       -0.0037
     22 C          59.8872   88.9751    8.9478 C.ar    1  UNL1        0.0111
     23 C          60.1396   89.1831   10.4117 C.ar    1  UNL1        0.0573
     24 CL         59.5127   90.3453   11.1231 Cl      1  UNL1       -0.0823
     25 C          61.0189   88.2288   11.1642 C.ar    1  UNL1        0.0069
     26 C          61.6458   87.0665   10.4528 C.ar    1  UNL1       -0.0236
     27 C          62.5250   86.1123   11.2053 C.3     1  UNL1        0.0456
@<TRIPOS>BOND
     1     1     2    1
     2     2     3   ar
     3     3     4   ar
     4     4    15    1
     5    17    15    1
     6    17    18    1
     7    18    19    1
     8    19    20    1
     9    20    21   ar
    10    21    22   ar
    11    22    23   ar
    12    23    24    1
    13    23    25   ar
    14    25    26   ar
    15    26    27    1
    16     4     5   ar
    17     5     6   ar
    18     6     7   ar
    19     7    11    1
    20    11    12    1
    21    11    13    1
    22    11    14    1
    23     7     8   ar
    24     8     9   ar
    25     9    10   ar
    26    10     2   ar
    27    27    17    1
    28     9     5   ar
    29    26    20   ar
    30    15    16    1
@<TRIPOS>MOLECULE
*****
 27 30 0 0 0
SMALL
GASTEIGER

@<TRIPOS>ATOM
      1 C          67.3348   93.1320   14.5073 C.3     1  UNL1        0.0523
      2 C          66.0953   92.3348   14.2275 C.ar    1  UNL1        0.0653
      3 C          65.3998   91.6132   15.3437 C.ar    1  UNL1        0.0490
      4 C          64.1604   90.8161   15.0639 C.ar    1  UNL1        0.1342
      5 N          63.6164   90.7405   13.6680 N.ar    1  UNL1       -0.1816
      6 N          62.4222   90.0383   13.0929 N.ar    1  UNL1       -0.1409
      7 C          62.3796   90.3260   11.6213 C.ar    1  UNL1        0.2227
      8 N          63.5475   91.2059   11.2870 N.ar    1  UNL1       -0.1880
      9 C          64.3119   91.4621   12.5520 C.ar    1  UNL1        0.2552
     10 N          65.5513   92.2593   12.8317 N.ar    1  UNL1       -0.2142
     11 C          61.3499   89.8221   10.6539 C.3     1  UNL1        0.3163
     12 C          60.3203   89.3182    9.6865 C.3     1  UNL1        0.0805
     13 F          60.3113   90.6815   11.3116 F       1  UNL1       -0.1962
     14 F          62.3885   88.9626    9.9961 F       1  UNL1       -0.1962
     15 N          63.4649   90.0945   16.1799 N.pl3   1  UNL1       -0.3192
     16 H          63.0459   90.6046   16.9103 H       1  UNL1        0.1482
     17 C          63.4077   88.5955   16.1832 C.3     1  UNL1        0.0750
     18 C          62.8458   87.8690   17.3691 C.3     1  UNL1        0.0245
     19 C          62.7886   86.3701   17.3723 C.3     1  UNL1        0.0277
     20 C          63.2934   85.5978   16.1896 C.ar    1  UNL1       -0.0260
     21 C          63.2362   84.0988   16.1929 C.ar    1  UNL1       -0.0037
     22 C          63.7410   83.3265   15.0102 C.ar    1  UNL1        0.0111
     23 C          64.3030   84.0531   13.8243 C.ar    1  UNL1        0.0573
     24 CL         64.8077   83.2807   12.6416 Cl      1  UNL1       -0.0823
     25 C          64.3601   85.5519   13.8211 C.ar    1  UNL1        0.0069
     26 C          63.8553   86.3243   15.0037 C.ar    1  UNL1       -0.0236
     27 C          63.9125   87.8232   15.0005 C.3     1  UNL1        0.0456
@<TRIPOS>BOND
     1     1     2    1
     2     2     3   ar
     3     3     4   ar
     4     4    15    1
     5    17    15    1
     6    17    18    1
     7    18    19    1
     8    19    20    1
     9    20    21   ar
    10    21    22   ar
    11    22    23   ar
    12    23    24    1
    13    23    25   ar
    14    25    26   ar
    15    26    27    1
    16     4     5   ar
    17     5     6   ar
    18     6     7   ar
    19     7    11    1
    20    11    12    1
    21    11    13    1
    22    11    14    1
    23     7     8   ar
    24     8     9   ar
    25     9    10   ar
    26    10     2   ar
    27    27    17    1
    28     9     5   ar
    29    26    20   ar
    30    15    16    1
@<TRIPOS>MOLECULE
*****
 27 30 0 0 0
SMALL
GASTEIGER

@<TRIPOS>ATOM
      1 C          62.3968   84.9987    6.7963 C.3     1  UNL1        0.0523
      2 C          62.4815   85.2487    8.2729 C.ar    1  UNL1        0.0653
      3 C          61.9434   86.5247    8.8496 C.ar    1  UNL1        0.0490
      4 C          62.0281   86.7747   10.3262 C.ar    1  UNL1        0.1342
      5 N          62.6507   85.7487   11.2261 N.ar    1  UNL1       -0.1816
      6 N          62.8728   85.7170   12.7092 N.ar    1  UNL1       -0.1409
      7 C          63.5481   84.4215   13.0492 C.ar    1  UNL1        0.2227
      8 N          63.7433   83.6525   11.7761 N.ar    1  UNL1       -0.1880
      9 C          63.1887   84.4728   10.6494 C.ar    1  UNL1        0.2552
     10 N          63.1041   84.2228    9.1728 N.ar    1  UNL1       -0.2142
     11 C          63.9564   83.9735   14.4213 C.3     1  UNL1        0.3163
     12 C          64.3647   83.5255   15.7934 C.3     1  UNL1        0.0805
     13 F          65.1266   84.9109   14.3792 F       1  UNL1       -0.1962
     14 F          62.7862   83.0361   14.4634 F       1  UNL1       -0.1962
     15 N          61.4901   88.0506   10.9029 N.pl3   1  UNL1       -0.3192
     16 H          60.5364   88.1214   11.1370 H       1  UNL1        0.1482
     17 C          62.4051   89.2187   11.1230 C.3     1  UNL1        0.0750
     18 C          62.5588   90.2624   10.0567 C.3     1  UNL1        0.0245
     19 C          63.4737   91.4304   10.2769 C.3     1  UNL1        0.0277
     20 C          64.2351   91.5547   11.5633 C.ar    1  UNL1       -0.0260
     21 C          65.1501   92.7228   11.7834 C.ar    1  UNL1       -0.0037
     22 C          65.9114   92.8471   13.0698 C.ar    1  UNL1        0.0111
     23 C          65.7577   91.8033   14.1362 C.ar    1  UNL1        0.0573
     24 CL         66.5191   91.9277   15.4226 Cl      1  UNL1       -0.0823
     25 C          64.8428   90.6353   13.9160 C.ar    1  UNL1        0.0069
     26 C          64.0814   90.5110   12.6296 C.ar    1  UNL1       -0.0236
     27 C          63.1664   89.3430   12.4095 C.3     1  UNL1        0.0456
@<TRIPOS>BOND
     1     1     2    1
     2     2     3   ar
     3     3     4   ar
     4     4    15    1
     5    17    15    1
     6    17    18    1
     7    18    19    1
     8    19    20    1
     9    20    21   ar
    10    21    22   ar
    11    22    23   ar
    12    23    24    1
    13    23    25   ar
    14    25    26   ar
    15    26    27    1
    16     4     5   ar
    17     5     6   ar
    18     6     7   ar
    19     7    11    1
    20    11    12    1
    21    11    13    1
    22    11    14    1
    23     7     8   ar
    24     8     9   ar
    25     9    10   ar
    26    10     2   ar
    27    27    17    1
    28     9     5   ar
    29    26    20   ar
    30    15    16    1
@<TRIPOS>MOLECULE
*****
 27 30 0 0 0
SMALL
GASTEIGER

@<TRIPOS>ATOM
      1 C          61.7331   89.4366   10.9788 C.3     1  UNL1        0.0523
      2 C          62.8004   89.6780   12.0048 C.ar    1  UNL1        0.0653
      3 C          63.1813   88.5873   12.9617 C.ar    1  UNL1        0.0490
      4 C          64.2486   88.8287   13.9876 C.ar    1  UNL1        0.1342
      5 N          64.9350   90.1607   14.0568 N.ar    1  UNL1       -0.1816
      6 N          66.0156   90.6875   14.9538 N.ar    1  UNL1       -0.1409
      7 C          66.3025   92.1038   14.5514 C.ar    1  UNL1        0.2227
      8 N          65.3992   92.4522   13.4057 N.ar    1  UNL1       -0.1880
      9 C          64.5540   91.2513   13.1000 C.ar    1  UNL1        0.2552
     10 N          63.4867   91.0099   12.0740 N.ar    1  UNL1       -0.2142
     11 C          67.3150   93.0122   15.1837 C.3     1  UNL1        0.3163
     12 C          68.3275   93.9204   15.8161 C.3     1  UNL1        0.0805
     13 F          66.6679   94.1933   14.5233 F       1  UNL1       -0.1962
     14 F          67.9621   91.8311   15.8442 F       1  UNL1       -0.1962
     15 N          64.6295   87.7381   14.9444 N.pl3   1  UNL1       -0.3192
     16 H          65.2931   87.9124   15.6506 H       1  UNL1        0.1482
     17 C          63.9995   86.3820   14.8254 C.3     1  UNL1        0.0750
     18 C          63.2203   85.8136   15.9742 C.3     1  UNL1        0.0245
     19 C          62.5902   84.4576   15.8551 C.3     1  UNL1        0.0277
     20 C          62.7395   83.6700   14.5873 C.ar    1  UNL1       -0.0260
     21 C          62.1094   82.3138   14.4683 C.ar    1  UNL1       -0.0037
     22 C          62.2586   81.5262   13.2005 C.ar    1  UNL1        0.0111
     23 C          63.0379   82.0947   12.0517 C.ar    1  UNL1        0.0573
     24 CL         63.1871   81.3070   10.7839 Cl      1  UNL1       -0.0823
     25 C          63.6679   83.4507   12.1707 C.ar    1  UNL1        0.0069
     26 C          63.5187   84.2383   13.4386 C.ar    1  UNL1       -0.0236
     27 C          64.1487   85.5944   13.5576 C.3     1  UNL1        0.0456
@<TRIPOS>BOND
     1     1     2    1
     2     2     3   ar
     3     3     4   ar
     4     4    15    1
     5    17    15    1
     6    17    18    1
     7    18    19    1
     8    19    20    1
     9    20    21   ar
    10    21    22   ar
    11    22    23   ar
    12    23    24    1
    13    23    25   ar
    14    25    26   ar
    15    26    27    1
    16     4     5   ar
    17     5     6   ar
    18     6     7   ar
    19     7    11    1
    20    11    12    1
    21    11    13    1
    22    11    14    1
    23     7     8   ar
    24     8     9   ar
    25     9    10   ar
    26    10     2   ar
    27    27    17    1
    28     9     5   ar
    29    26    20   ar
    30    15    16    1
@<TRIPOS>MOLECULE
*****
 27 30 0 0 0
SMALL
GASTEIGER

@<TRIPOS>ATOM
      1 C          62.6188   86.9214   18.6002 C.3     1  UNL1        0.0523
      2 C          62.8597   86.3144   17.2498 C.ar    1  UNL1        0.0653
      3 C          63.4419   87.1471   16.1463 C.ar    1  UNL1        0.0490
      4 C          63.6828   86.5401   14.7959 C.ar    1  UNL1        0.1342
      5 N          63.3414   85.1004   14.5490 N.ar    1  UNL1       -0.1816
      6 N          63.4662   84.2340   13.3310 N.ar    1  UNL1       -0.1409
      7 C          62.9611   82.8658   13.6817 C.ar    1  UNL1        0.2227
      8 N          62.5242   82.8867   15.1165 N.ar    1  UNL1       -0.1880
      9 C          62.7592   84.2678   15.6525 C.ar    1  UNL1        0.2552
     10 N          62.5184   84.8748   17.0029 N.ar    1  UNL1       -0.2142
     11 C          62.9031   81.6842   12.7595 C.3     1  UNL1        0.3163
     12 C          62.8451   80.5026   11.8373 C.3     1  UNL1        0.0805
     13 F          63.4580   80.8099   13.8447 F       1  UNL1       -0.1962
     14 F          62.3482   82.5584   11.6743 F       1  UNL1       -0.1962
     15 N          64.2650   87.3727   13.6924 N.pl3   1  UNL1       -0.3192
     16 H          65.2339   87.5450   13.6645 H       1  UNL1        0.1482
     17 C          63.3710   87.9428   12.6314 C.3     1  UNL1        0.0750
     18 C          63.2023   89.4285   12.5114 C.3     1  UNL1        0.0245
     19 C          62.3083   89.9985   11.4505 C.3     1  UNL1        0.0277
     20 C          61.5830   89.0830   10.5094 C.ar    1  UNL1       -0.0260
     21 C          60.6889   89.6531    9.4484 C.ar    1  UNL1       -0.0037
     22 C          59.9636   88.7376    8.5073 C.ar    1  UNL1        0.0111
     23 C          60.1323   87.2519    8.6273 C.ar    1  UNL1        0.0573
     24 CL         59.4069   86.3363    7.6862 Cl      1  UNL1       -0.0823
     25 C          61.0263   86.6818    9.6882 C.ar    1  UNL1        0.0069
     26 C          61.7516   87.5973   10.6293 C.ar    1  UNL1       -0.0236
     27 C          62.6456   87.0273   11.6903 C.3     1  UNL1        0.0456
@<TRIPOS>BOND
     1     1     2    1
     2     2     3   ar
     3     3     4   ar
     4     4    15    1
     5    17    15    1
     6    17    18    1
     7    18    19    1
     8    19    20    1
     9    20    21   ar
    10    21    22   ar
    11    22    23   ar
    12    23    24    1
    13    23    25   ar
    14    25    26   ar
    15    26    27    1
    16     4     5   ar
    17     5     6   ar
    18     6     7   ar
    19     7    11    1
    20    11    12    1
    21    11    13    1
    22    11    14    1
    23     7     8   ar
    24     8     9   ar
    25     9    10   ar
    26    10     2   ar
    27    27    17    1
    28     9     5   ar
    29    26    20   ar
    30    15    16    1
@<TRIPOS>MOLECULE
*****
 27 30 0 0 0
SMALL
GASTEIGER

@<TRIPOS>ATOM
      1 C          62.7606   84.2630   11.1079 C.3     1  UNL1        0.0523
      2 C          62.1462   85.5535   10.6529 C.ar    1  UNL1        0.0653
      3 C          62.1178   86.7366   11.5746 C.ar    1  UNL1        0.0490
      4 C          61.5034   88.0272   11.1197 C.ar    1  UNL1        0.1342
      5 N          60.9173   88.1346    9.7430 N.ar    1  UNL1       -0.1816
      6 N          60.2494   89.2678    9.0222 N.ar    1  UNL1       -0.1409
      7 C          59.8649   88.7851    7.6550 C.ar    1  UNL1        0.2227
      8 N          60.2953   87.3535    7.5310 N.ar    1  UNL1       -0.1880
      9 C          60.9457   86.9515    8.8214 C.ar    1  UNL1        0.2552
     10 N          61.5601   85.6609    9.2764 N.ar    1  UNL1       -0.2142
     11 C          59.1718   89.5922    6.5976 C.3     1  UNL1        0.3163
     12 C          58.4788   90.3994    5.5402 C.3     1  UNL1        0.0805
     13 F          57.8566   88.9978    7.0059 F       1  UNL1       -0.1962
     14 F          60.4871   90.1866    6.1893 F       1  UNL1       -0.1962
     15 N          61.4750   89.2103   12.0413 N.pl3   1  UNL1       -0.3192
     16 H          60.6810   89.3821   12.5974 H       1  UNL1        0.1482
     17 C          62.6564   90.1317   12.1156 C.3     1  UNL1        0.0750
     18 C          63.1212   90.8557   10.8869 C.3     1  UNL1        0.0245
     19 C          64.3026   91.7771   10.9612 C.3     1  UNL1        0.0277
     20 C          65.0191   91.9743   12.2642 C.ar    1  UNL1       -0.0260
     21 C          66.2005   92.8957   12.3385 C.ar    1  UNL1       -0.0037
     22 C          66.9170   93.0930   13.6414 C.ar    1  UNL1        0.0111
     23 C          66.4521   92.3688   14.8701 C.ar    1  UNL1        0.0573
     24 CL         67.1686   92.5661   16.1731 Cl      1  UNL1       -0.0823
     25 C          65.2708   91.4475   14.7958 C.ar    1  UNL1        0.0069
     26 C          64.5543   91.2503   13.4928 C.ar    1  UNL1       -0.0236
     27 C          63.3729   90.3289   13.4185 C.3     1  UNL1        0.0456
@<TRIPOS>BOND
     1     1     2    1
     2     2     3   ar
     3     3     4   ar
     4     4    15    1
     5    17    15    1
     6    17    18    1
     7    18    19    1
     8    19    20    1
     9    20    21   ar
    10    21    22   ar
    11    22    23   ar
    12    23    24    1
    13    23    25   ar
    14    25    26   ar
    15    26    27    1
    16     4     5   ar
    17     5     6   ar
    18     6     7   ar
    19     7    11    1
    20    11    12    1
    21    11    13    1
    22    11    14    1
    23     7     8   ar
    24     8     9   ar
    25     9    10   ar
    26    10     2   ar
    27    27    17    1
    28     9     5   ar
    29    26    20   ar
    30    15    16    1
