@<TRIPOS>MOLECULE
*****
 37 39 0 0 0
SMALL
GASTEIGER

@<TRIPOS>ATOM
      1 C          62.3628   89.3308   10.9693 C.ar    1  UNL1       -0.0145
      2 C          61.8765   88.7171    9.6898 C.ar    1  UNL1       -0.0026
      3 C          61.8476   87.2252    9.5371 C.ar    1  UNL1        0.0144
      4 C          62.3049   86.3469   10.6639 C.ar    1  UNL1        0.0505
      5 C          62.7912   86.9606   11.9433 C.ar    1  UNL1        0.0144
      6 C          62.8202   88.4526   12.0960 C.ar    1  UNL1       -0.0026
      7 N          62.2760   84.8550   10.5113 N.am    1  UNL1       -0.2804
      8 C          62.9807   83.9851   11.5097 C.2     1  UNL1        0.2495
      9 O          63.7143   84.6071   12.6607 O.2     1  UNL1       -0.2698
     10 H          61.7945   84.4467    9.7558 H       1  UNL1        0.1552
     11 C          62.9518   82.4932   11.3570 C.ar    1  UNL1        0.0537
     12 C          63.2703   81.8686   10.0309 C.ar    1  UNL1        0.0045
     13 C          63.2413   80.3767    9.8783 C.ar    1  UNL1        0.0040
     14 C          62.8939   79.5093   11.0517 C.ar    1  UNL1        0.0714
     15 C          62.5753   80.1339   12.3778 C.ar    1  UNL1        0.0040
     16 C          62.6043   81.6258   12.5305 C.ar    1  UNL1        0.0045
     17 C          62.8649   78.0174   10.8990 C.3     1  UNL1        0.4186
     18 F          62.8360   76.5255   10.7463 F       1  UNL1       -0.1659
     19 F          62.4906   77.8767   12.3447 F       1  UNL1       -0.1659
     20 F          63.2392   78.1581    9.4533 F       1  UNL1       -0.1659
     21 C          62.3918   90.8227   11.1220 C.3     1  UNL1        0.0920
     22 C          64.9125   92.0490   13.9313 C.ar    1  UNL1        0.1321
     23 N          63.7413   91.3854   13.2696 N.ar    1  UNL1       -0.2159
     24 C          63.5631   91.4863   11.7836 C.ar    1  UNL1        0.1463
     25 N          64.5561   92.2508   10.9594 N.ar    1  UNL1       -0.2159
     26 C          65.7273   92.9144   11.6211 C.ar    1  UNL1        0.1321
     27 C          65.9055   92.8135   13.1070 C.ar    1  UNL1        0.0466
     28 C          64.0775   91.2159   16.2461 C.3     1  UNL1        0.1136
     29 N          65.0907   91.9481   15.4172 N.pl3   1  UNL1       -0.2899
     30 C          65.9101   92.3621   16.0114 C.3     1  UNL1        0.1136
     31 N          66.7204   93.6789   10.7968 N.pl3   1  UNL1       -0.2899
     32 C          67.7262   92.9435    9.9616 C.3     1  UNL1        0.1136
     33 C          66.7077   95.1788   10.8078 C.3     1  UNL1        0.1136
     34 C          67.0768   93.4771   13.7687 C.3     1  UNL1        0.0736
     35 C          68.3648   92.7277   13.9406 C.2     1  UNL1        0.0549
     36 O          68.7446   91.6550   12.9633 O.co2   1  UNL1       -0.5488
     37 O          69.1075   92.8681   14.7308 O.co2   1  UNL1       -0.5488
@<TRIPOS>UNITY_ATOM_ATTR
36 1
charge -1
@<TRIPOS>BOND
     1    28    29    1
     2    29    30    1
     3    29    22    1
     4    22    23   ar
     5    23    24   ar
     6    24    21    1
     7    21     1    1
     8     1     2   ar
     9     2     3   ar
    10     3     4   ar
    11     4     7    1
    12     7     8   am
    13     8     9    2
    14     8    11    1
    15    11    12   ar
    16    12    13   ar
    17    13    14   ar
    18    14    17    1
    19    17    18    1
    20    17    19    1
    21    17    20    1
    22    14    15   ar
    23    15    16   ar
    24     4     5   ar
    25     5     6   ar
    26    24    25   ar
    27    25    26   ar
    28    26    31    1
    29    31    32    1
    30    31    33    1
    31    26    27   ar
    32    27    34    1
    33    34    35    1
    34    35    36   ar
    35    35    37   ar
    36    27    22   ar
    37     6     1   ar
    38    16    11   ar
    39     7    10    1
@<TRIPOS>MOLECULE
*****
 37 39 0 0 0
SMALL
GASTEIGER

@<TRIPOS>ATOM
      1 C          59.4857   90.9275    5.1366 C.ar    1  UNL1       -0.0145
      2 C          60.9425   90.6005    4.9923 C.ar    1  UNL1       -0.0026
      3 C          61.7897   91.3644    4.0183 C.ar    1  UNL1        0.0144
      4 C          61.1801   92.4554    3.1887 C.ar    1  UNL1        0.0505
      5 C          59.7233   92.7824    3.3330 C.ar    1  UNL1        0.0144
      6 C          58.8761   92.0184    4.3070 C.ar    1  UNL1       -0.0026
      7 N          62.0273   93.2193    2.2147 N.am    1  UNL1       -0.2804
      8 C          61.9447   92.9141    0.7483 C.2     1  UNL1        0.2495
      9 O          61.0149   91.8449    0.2560 O.2     1  UNL1       -0.2698
     10 H          62.6375   93.9211    2.5378 H       1  UNL1        0.1552
     11 C          62.7919   93.6780   -0.2257 C.ar    1  UNL1        0.0537
     12 C          63.9827   94.4497    0.2604 C.ar    1  UNL1        0.0045
     13 C          64.8299   95.2137   -0.7136 C.ar    1  UNL1        0.0040
     14 C          64.4862   95.2059   -2.1736 C.ar    1  UNL1        0.0714
     15 C          63.2953   94.4341   -2.6598 C.ar    1  UNL1        0.0040
     16 C          62.4481   93.6702   -1.6858 C.ar    1  UNL1        0.0045
     17 C          65.3334   95.9698   -3.1476 C.3     1  UNL1        0.4186
     18 F          66.1806   96.7338   -4.1216 F       1  UNL1       -0.1659
     19 F          66.0648   96.6131   -2.0069 F       1  UNL1       -0.1659
     20 F          64.6021   95.3265   -4.2884 F       1  UNL1       -0.1659
     21 C          58.6385   90.1636    6.1106 C.3     1  UNL1        0.0920
     22 C          60.5068   87.2353    8.0302 C.ar    1  UNL1        0.1321
     23 N          59.8596   88.0211    6.9286 N.ar    1  UNL1       -0.2159
     24 C          59.2858   89.3777    7.2123 C.ar    1  UNL1        0.1463
     25 N          59.3592   89.9484    8.5975 N.ar    1  UNL1       -0.2159
     26 C          60.0064   89.1626    9.6990 C.ar    1  UNL1        0.1321
     27 C          60.5802   87.8060    9.4154 C.ar    1  UNL1        0.0466
     28 C          62.4764   85.5481    8.1852 C.3     1  UNL1        0.1136
     29 N          61.0806   85.8787    7.7466 N.pl3   1  UNL1       -0.2899
     30 C          60.5869   85.0498    7.2318 C.3     1  UNL1        0.1136
     31 N          60.0798   89.7333   11.0843 N.pl3   1  UNL1       -0.2899
     32 C          61.0743   90.8111   11.3997 C.3     1  UNL1        0.1136
     33 C          59.1589   89.2262   12.1542 C.3     1  UNL1        0.1136
     34 C          61.2275   87.0201   10.5171 C.3     1  UNL1        0.0736
     35 C          62.4571   87.5496   11.1935 C.2     1  UNL1        0.0549
     36 O          62.9922   86.8677   12.4177 O.co2   1  UNL1       -0.5488
     37 O          63.0502   88.4184   10.8947 O.co2   1  UNL1       -0.5488
@<TRIPOS>UNITY_ATOM_ATTR
36 1
charge -1
@<TRIPOS>BOND
     1    28    29    1
     2    29    30    1
     3    29    22    1
     4    22    23   ar
     5    23    24   ar
     6    24    21    1
     7    21     1    1
     8     1     2   ar
     9     2     3   ar
    10     3     4   ar
    11     4     7    1
    12     7     8   am
    13     8     9    2
    14     8    11    1
    15    11    12   ar
    16    12    13   ar
    17    13    14   ar
    18    14    17    1
    19    17    18    1
    20    17    19    1
    21    17    20    1
    22    14    15   ar
    23    15    16   ar
    24     4     5   ar
    25     5     6   ar
    26    24    25   ar
    27    25    26   ar
    28    26    31    1
    29    31    32    1
    30    31    33    1
    31    26    27   ar
    32    27    34    1
    33    34    35    1
    34    35    36   ar
    35    35    37   ar
    36    27    22   ar
    37     6     1   ar
    38    16    11   ar
    39     7    10    1
@<TRIPOS>MOLECULE
*****
 37 39 0 0 0
SMALL
GASTEIGER

@<TRIPOS>ATOM
      1 C          59.5254   90.9044    5.1966 C.ar    1  UNL1       -0.0145
      2 C          60.9726   90.5533    5.0160 C.ar    1  UNL1       -0.0026
      3 C          61.8107   91.3110    4.0294 C.ar    1  UNL1        0.0144
      4 C          61.2016   92.4199    3.2233 C.ar    1  UNL1        0.0505
      5 C          59.7545   92.7709    3.4039 C.ar    1  UNL1        0.0144
      6 C          58.9164   92.0132    4.3906 C.ar    1  UNL1       -0.0026
      7 N          62.0397   93.1776    2.2367 N.am    1  UNL1       -0.2804
      8 C          61.9234   92.8820    0.7707 C.2     1  UNL1        0.2495
      9 O          60.9690   91.8288    0.2913 O.2     1  UNL1       -0.2698
     10 H          62.6661   93.8688    2.5513 H       1  UNL1        0.1552
     11 C          62.7615   93.6398   -0.2160 C.ar    1  UNL1        0.0537
     12 C          63.9046   94.4843    0.2634 C.ar    1  UNL1        0.0045
     13 C          64.7427   95.2420   -0.7232 C.ar    1  UNL1        0.0040
     14 C          64.4377   95.1552   -2.1892 C.ar    1  UNL1        0.0714
     15 C          63.2945   94.3106   -2.6687 C.ar    1  UNL1        0.0040
     16 C          62.4564   93.5529   -1.6821 C.ar    1  UNL1        0.0045
     17 C          65.2758   95.9129   -3.1759 C.3     1  UNL1        0.4186
     18 F          66.1139   96.6706   -4.1625 F       1  UNL1       -0.1659
     19 F          64.5440   95.2511   -4.3057 F       1  UNL1       -0.1659
     20 F          66.0076   96.5747   -2.0460 F       1  UNL1       -0.1659
     21 C          58.6873   90.1467    6.1832 C.3     1  UNL1        0.0920
     22 C          60.0030   89.2848    9.8269 C.ar    1  UNL1        0.1321
     23 N          59.3486   90.0159    8.6924 N.ar    1  UNL1       -0.2159
     24 C          59.3417   89.4155    7.3178 C.ar    1  UNL1        0.1463
     25 N          59.9891   88.0839    7.0778 N.ar    1  UNL1       -0.2159
     26 C          60.6435   87.3528    8.2123 C.ar    1  UNL1        0.1321
     27 C          60.6504   87.9532    9.5869 C.ar    1  UNL1        0.0466
     28 C          59.1003   89.3405   12.2624 C.3     1  UNL1        0.1136
     29 N          60.0099   89.8852   11.2015 N.pl3   1  UNL1       -0.2899
     30 C          60.6268   90.7167   11.5533 C.3     1  UNL1        0.1136
     31 N          61.2909   86.0211    7.9723 N.pl3   1  UNL1       -0.2899
     32 C          62.6201   85.7104    8.5943 C.3     1  UNL1        0.1136
     33 C          60.6093   85.0002    7.1104 C.3     1  UNL1        0.1136
     34 C          61.3048   87.2220   10.7214 C.3     1  UNL1        0.0736
     35 C          62.5190   87.8006   11.3856 C.2     1  UNL1        0.0549
     36 O          63.0826   87.1513   12.6147 O.co2   1  UNL1       -0.5488
     37 O          63.0808   88.6854   11.0739 O.co2   1  UNL1       -0.5488
@<TRIPOS>UNITY_ATOM_ATTR
36 1
charge -1
@<TRIPOS>BOND
     1    28    29    1
     2    29    30    1
     3    29    22    1
     4    22    23   ar
     5    23    24   ar
     6    24    21    1
     7    21     1    1
     8     1     2   ar
     9     2     3   ar
    10     3     4   ar
    11     4     7    1
    12     7     8   am
    13     8     9    2
    14     8    11    1
    15    11    12   ar
    16    12    13   ar
    17    13    14   ar
    18    14    17    1
    19    17    18    1
    20    17    19    1
    21    17    20    1
    22    14    15   ar
    23    15    16   ar
    24     4     5   ar
    25     5     6   ar
    26    24    25   ar
    27    25    26   ar
    28    26    31    1
    29    31    32    1
    30    31    33    1
    31    26    27   ar
    32    27    34    1
    33    34    35    1
    34    35    36   ar
    35    35    37   ar
    36    27    22   ar
    37     6     1   ar
    38    16    11   ar
    39     7    10    1
@<TRIPOS>MOLECULE
*****
 37 39 0 0 0
SMALL
GASTEIGER

@<TRIPOS>ATOM
      1 C          63.9237   88.2851   14.9249 C.ar    1  UNL1       -0.0145
      2 C          63.8658   87.9208   13.4709 C.ar    1  UNL1       -0.0026
      3 C          63.7783   86.4804   13.0615 C.ar    1  UNL1        0.0144
      4 C          63.7488   85.4043   14.1062 C.ar    1  UNL1        0.0505
      5 C          63.8067   85.7686   15.5601 C.ar    1  UNL1        0.0144
      6 C          63.8942   87.2090   15.9694 C.ar    1  UNL1       -0.0026
      7 N          63.6614   83.9639   13.6968 N.am    1  UNL1       -0.2804
      8 C          63.0790   83.5970   12.3640 C.2     1  UNL1        0.2495
      9 O          62.5842   84.6705   11.4406 O.2     1  UNL1       -0.2698
     10 H          63.9862   83.2593   14.3029 H       1  UNL1        0.1552
     11 C          62.9916   82.1566   11.9546 C.ar    1  UNL1        0.0537
     12 C          62.6357   81.1092   12.9677 C.ar    1  UNL1        0.0045
     13 C          62.5483   79.6688   12.5583 C.ar    1  UNL1        0.0040
     14 C          62.8167   79.2758   11.1359 C.ar    1  UNL1        0.0714
     15 C          63.1726   80.3231   10.1227 C.ar    1  UNL1        0.0040
     16 C          63.2600   81.7635   10.5321 C.ar    1  UNL1        0.0045
     17 C          62.7293   77.8354   10.7265 C.3     1  UNL1        0.4186
     18 F          62.6418   76.3950   10.3171 F       1  UNL1       -0.1659
     19 F          62.8388   77.4202   12.1638 F       1  UNL1       -0.1659
     20 F          62.6197   78.2505    9.2893 F       1  UNL1       -0.1659
     21 C          64.0111   89.7255   15.3343 C.3     1  UNL1        0.0920
     22 C          65.0249   92.0639   12.2922 C.ar    1  UNL1        0.1321
     23 N          64.2590   91.0894   13.1369 N.ar    1  UNL1       -0.2159
     24 C          64.7772   90.7001   14.4896 C.ar    1  UNL1        0.1463
     25 N          66.0615   91.2853   14.9976 N.ar    1  UNL1       -0.2159
     26 C          66.8275   92.2598   14.1530 C.ar    1  UNL1        0.1321
     27 C          66.3092   92.6491   12.8003 C.ar    1  UNL1        0.0466
     28 C          63.4635   91.6122   10.2654 C.3     1  UNL1        0.1136
     29 N          64.5067   92.4532   10.9395 N.pl3   1  UNL1       -0.2899
     30 C          64.8064   93.3203   10.3444 C.3     1  UNL1        0.1136
     31 N          68.1118   92.8451   14.6610 N.pl3   1  UNL1       -0.2899
     32 C          69.4236   92.3566   14.1219 C.3     1  UNL1        0.1136
     33 C          68.0843   93.9188   15.7081 C.3     1  UNL1        0.1136
     34 C          67.0753   93.6237   11.9556 C.3     1  UNL1        0.0736
     35 C          67.9282   93.1282   10.8255 C.2     1  UNL1        0.0549
     36 O          68.3087   94.0563    9.7103 O.co2   1  UNL1       -0.5488
     37 O          68.3332   92.1203   10.6996 O.co2   1  UNL1       -0.5488
@<TRIPOS>UNITY_ATOM_ATTR
36 1
charge -1
@<TRIPOS>BOND
     1    28    29    1
     2    29    30    1
     3    29    22    1
     4    22    23   ar
     5    23    24   ar
     6    24    21    1
     7    21     1    1
     8     1     2   ar
     9     2     3   ar
    10     3     4   ar
    11     4     7    1
    12     7     8   am
    13     8     9    2
    14     8    11    1
    15    11    12   ar
    16    12    13   ar
    17    13    14   ar
    18    14    17    1
    19    17    18    1
    20    17    19    1
    21    17    20    1
    22    14    15   ar
    23    15    16   ar
    24     4     5   ar
    25     5     6   ar
    26    24    25   ar
    27    25    26   ar
    28    26    31    1
    29    31    32    1
    30    31    33    1
    31    26    27   ar
    32    27    34    1
    33    34    35    1
    34    35    36   ar
    35    35    37   ar
    36    27    22   ar
    37     6     1   ar
    38    16    11   ar
    39     7    10    1
@<TRIPOS>MOLECULE
*****
 37 39 0 0 0
SMALL
GASTEIGER

@<TRIPOS>ATOM
      1 C          59.2722   90.1495    6.4200 C.ar    1  UNL1       -0.0145
      2 C          59.9605   90.3732    7.7339 C.ar    1  UNL1       -0.0026
      3 C          60.4189   89.2008    8.5496 C.ar    1  UNL1        0.0144
      4 C          60.1891   87.8047    8.0513 C.ar    1  UNL1        0.0505
      5 C          59.5009   87.5811    6.7375 C.ar    1  UNL1        0.0144
      6 C          59.0424   88.7535    5.9218 C.ar    1  UNL1       -0.0026
      7 N          60.6475   86.6323    8.8670 N.am    1  UNL1       -0.2804
      8 C          61.9342   86.7096    9.6342 C.2     1  UNL1        0.2495
      9 O          62.7623   87.9593    9.5858 O.2     1  UNL1       -0.2698
     10 H          60.1039   85.8121    8.8988 H       1  UNL1        0.1552
     11 C          62.3926   85.5372   10.4499 C.ar    1  UNL1        0.0537
     12 C          62.0627   85.4654   11.9114 C.ar    1  UNL1        0.0045
     13 C          62.5211   84.2930   12.7270 C.ar    1  UNL1        0.0040
     14 C          63.3095   83.1924   12.0812 C.ar    1  UNL1        0.0714
     15 C          63.6395   83.2642   10.6197 C.ar    1  UNL1        0.0040
     16 C          63.1810   84.4366    9.8040 C.ar    1  UNL1        0.0045
     17 C          63.7679   82.0200   12.8969 C.3     1  UNL1        0.4186
     18 F          64.2263   80.8476   13.7126 F       1  UNL1       -0.1659
     19 F          64.6162   82.9327   13.7320 F       1  UNL1       -0.1659
     20 F          62.9197   81.1073   12.0618 F       1  UNL1       -0.1659
     21 C          58.8138   91.3219    5.6043 C.3     1  UNL1        0.0920
     22 C          61.8981   91.8442    3.1621 C.ar    1  UNL1        0.1321
     23 N          61.0707   91.3653    4.3180 N.ar    1  UNL1       -0.2159
     24 C          59.6412   91.8008    4.4484 C.ar    1  UNL1        0.1463
     25 N          59.0391   92.7151    3.4229 N.ar    1  UNL1       -0.2159
     26 C          59.8665   93.1939    2.2671 C.ar    1  UNL1        0.1321
     27 C          61.2960   92.7585    2.1367 C.ar    1  UNL1        0.0466
     28 C          64.3337   92.3195    2.3928 C.3     1  UNL1        0.1136
     29 N          63.3275   91.4087    3.0317 N.pl3   1  UNL1       -0.2899
     30 C          63.7588   90.4590    3.3601 C.3     1  UNL1        0.1136
     31 N          59.2645   94.1083    1.2416 N.pl3   1  UNL1       -0.2899
     32 C          59.6303   95.5629    1.2268 C.3     1  UNL1        0.1136
     33 C          58.2967   93.5679    0.2309 C.3     1  UNL1        0.1136
     34 C          62.1234   93.2374    0.9807 C.3     1  UNL1        0.0736
     35 C          61.8394   92.7351   -0.4039 C.2     1  UNL1        0.0549
     36 O          62.5883   93.2993   -1.5747 O.co2   1  UNL1       -0.5488
     37 O          61.1160   91.9666   -0.6896 O.co2   1  UNL1       -0.5488
@<TRIPOS>UNITY_ATOM_ATTR
36 1
charge -1
@<TRIPOS>BOND
     1    28    29    1
     2    29    30    1
     3    29    22    1
     4    22    23   ar
     5    23    24   ar
     6    24    21    1
     7    21     1    1
     8     1     2   ar
     9     2     3   ar
    10     3     4   ar
    11     4     7    1
    12     7     8   am
    13     8     9    2
    14     8    11    1
    15    11    12   ar
    16    12    13   ar
    17    13    14   ar
    18    14    17    1
    19    17    18    1
    20    17    19    1
    21    17    20    1
    22    14    15   ar
    23    15    16   ar
    24     4     5   ar
    25     5     6   ar
    26    24    25   ar
    27    25    26   ar
    28    26    31    1
    29    31    32    1
    30    31    33    1
    31    26    27   ar
    32    27    34    1
    33    34    35    1
    34    35    36   ar
    35    35    37   ar
    36    27    22   ar
    37     6     1   ar
    38    16    11   ar
    39     7    10    1
@<TRIPOS>MOLECULE
*****
 37 39 0 0 0
SMALL
GASTEIGER

@<TRIPOS>ATOM
      1 C          63.8907   88.3119   14.9168 C.ar    1  UNL1       -0.0145
      2 C          63.8106   87.9462   13.4642 C.ar    1  UNL1       -0.0026
      3 C          63.7176   86.5053   13.0576 C.ar    1  UNL1        0.0144
      4 C          63.7047   85.4302   14.1036 C.ar    1  UNL1        0.0505
      5 C          63.7848   85.7959   15.5561 C.ar    1  UNL1        0.0144
      6 C          63.8778   87.2368   15.9627 C.ar    1  UNL1       -0.0026
      7 N          63.6116   83.9894   13.6970 N.am    1  UNL1       -0.2804
      8 C          63.1244   83.6271   12.3254 C.2     1  UNL1        0.2495
      9 O          62.7302   84.7057   11.3604 O.2     1  UNL1       -0.2698
     10 H          63.8704   83.2814   14.3304 H       1  UNL1        0.1552
     11 C          63.0313   82.1863   11.9188 C.ar    1  UNL1        0.0537
     12 C          62.6924   81.1396   12.9384 C.ar    1  UNL1        0.0045
     13 C          62.5993   79.6988   12.5318 C.ar    1  UNL1        0.0040
     14 C          62.8453   79.3046   11.1056 C.ar    1  UNL1        0.0714
     15 C          63.1842   80.3512   10.0859 C.ar    1  UNL1        0.0040
     16 C          63.2773   81.7921   10.4925 C.ar    1  UNL1        0.0045
     17 C          62.7522   77.8637   10.6990 C.3     1  UNL1        0.4186
     18 F          62.6592   76.4229   10.2924 F       1  UNL1       -0.1659
     19 F          62.7110   77.4590   12.1427 F       1  UNL1       -0.1659
     20 F          62.7934   78.2685    9.2552 F       1  UNL1       -0.1659
     21 C          63.9838   89.7527   15.3234 C.3     1  UNL1        0.0920
     22 C          66.8450   92.2494   14.1703 C.ar    1  UNL1        0.1321
     23 N          66.0589   91.2835   15.0063 N.ar    1  UNL1       -0.2159
     24 C          64.7699   90.7187   14.4873 C.ar    1  UNL1        0.1463
     25 N          64.2670   91.1198   13.1323 N.ar    1  UNL1       -0.2159
     26 C          65.0531   92.0857   12.2963 C.ar    1  UNL1        0.1321
     27 C          66.3421   92.6505   12.8153 C.ar    1  UNL1        0.0466
     28 C          68.1148   93.9531   15.6653 C.3     1  UNL1        0.1136
     29 N          68.1341   92.8142   14.6893 N.pl3   1  UNL1       -0.2899
     30 C          69.1459   92.4863   14.4353 C.3     1  UNL1        0.1136
     31 N          64.5502   92.4869   10.9412 N.pl3   1  UNL1       -0.2899
     32 C          63.6067   91.5902   10.1957 C.3     1  UNL1        0.1136
     33 C          64.9908   93.7846   10.3316 C.3     1  UNL1        0.1136
     34 C          67.1283   93.6165   11.9792 C.3     1  UNL1        0.0736
     35 C          68.0371   93.1074   10.9000 C.2     1  UNL1        0.0549
     36 O          68.4710   94.0207    9.7921 O.co2   1  UNL1       -0.5488
     37 O          68.4496   92.0988   10.8085 O.co2   1  UNL1       -0.5488
@<TRIPOS>UNITY_ATOM_ATTR
36 1
charge -1
@<TRIPOS>BOND
     1    28    29    1
     2    29    30    1
     3    29    22    1
     4    22    23   ar
     5    23    24   ar
     6    24    21    1
     7    21     1    1
     8     1     2   ar
     9     2     3   ar
    10     3     4   ar
    11     4     7    1
    12     7     8   am
    13     8     9    2
    14     8    11    1
    15    11    12   ar
    16    12    13   ar
    17    13    14   ar
    18    14    17    1
    19    17    18    1
    20    17    19    1
    21    17    20    1
    22    14    15   ar
    23    15    16   ar
    24     4     5   ar
    25     5     6   ar
    26    24    25   ar
    27    25    26   ar
    28    26    31    1
    29    31    32    1
    30    31    33    1
    31    26    27   ar
    32    27    34    1
    33    34    35    1
    34    35    36   ar
    35    35    37   ar
    36    27    22   ar
    37     6     1   ar
    38    16    11   ar
    39     7    10    1
@<TRIPOS>MOLECULE
*****
 37 39 0 0 0
SMALL
GASTEIGER

@<TRIPOS>ATOM
      1 C          59.3499   89.8666    6.8537 C.ar    1  UNL1       -0.0145
      2 C          59.0347   88.4269    6.5746 C.ar    1  UNL1       -0.0026
      3 C          59.4968   87.3605    7.5229 C.ar    1  UNL1        0.0144
      4 C          60.2739   87.7339    8.7504 C.ar    1  UNL1        0.0505
      5 C          60.5890   89.1736    9.0295 C.ar    1  UNL1        0.0144
      6 C          60.1270   90.2400    8.0812 C.ar    1  UNL1       -0.0026
      7 N          60.7359   86.6675    9.6988 N.am    1  UNL1       -0.2804
      8 C          62.0689   86.0101    9.4964 C.2     1  UNL1        0.2495
      9 O          62.9399   86.4190    8.3457 O.2     1  UNL1       -0.2698
     10 H          60.1643   86.3991   10.4541 H       1  UNL1        0.1552
     11 C          62.5310   84.9437   10.4448 C.ar    1  UNL1        0.0537
     12 C          63.3972   83.8237    9.9497 C.ar    1  UNL1        0.0045
     13 C          63.8592   82.7573   10.8980 C.ar    1  UNL1        0.0040
     14 C          63.4550   82.8109   12.3415 C.ar    1  UNL1        0.0714
     15 C          62.5887   83.9310   12.8367 C.ar    1  UNL1        0.0040
     16 C          62.1267   84.9974   11.8883 C.ar    1  UNL1        0.0045
     17 C          63.9170   81.7446   13.2899 C.3     1  UNL1        0.4186
     18 F          64.3790   80.6782   14.2382 F       1  UNL1       -0.1659
     19 F          63.3017   80.6963   12.4109 F       1  UNL1       -0.1659
     20 F          64.5322   82.7928   14.1689 F       1  UNL1       -0.1659
     21 C          58.8879   90.9330    5.9054 C.3     1  UNL1        0.0920
     22 C          62.0159   91.1880    3.4762 C.ar    1  UNL1        0.1321
     23 N          61.1128   90.7237    4.5802 N.ar    1  UNL1       -0.2159
     24 C          59.7910   91.3975    4.8014 C.ar    1  UNL1        0.1463
     25 N          59.3724   92.5356    3.9186 N.ar    1  UNL1       -0.2159
     26 C          60.2755   93.0000    2.8147 C.ar    1  UNL1        0.1321
     27 C          61.5973   92.3262    2.5935 C.ar    1  UNL1        0.0466
     28 C          63.3875   89.0547    2.9129 C.3     1  UNL1        0.1136
     29 N          63.3377   90.5142    3.2550 N.pl3   1  UNL1       -0.2899
     30 C          64.3284   90.9734    3.3137 C.3     1  UNL1        0.1136
     31 N          59.8569   94.1382    1.9319 N.pl3   1  UNL1       -0.2899
     32 C          59.1453   93.8632    0.6404 C.3     1  UNL1        0.1136
     33 C          60.1497   95.5514    2.3407 C.3     1  UNL1        0.1136
     34 C          62.5004   92.7906    1.4895 C.3     1  UNL1        0.0736
     35 C          63.3272   94.0294    1.6680 C.2     1  UNL1        0.0549
     36 O          63.2599   95.1291    0.6502 O.co2   1  UNL1       -0.5488
     37 O          64.0131   94.2500    2.4905 O.co2   1  UNL1       -0.5488
@<TRIPOS>UNITY_ATOM_ATTR
36 1
charge -1
@<TRIPOS>BOND
     1    28    29    1
     2    29    30    1
     3    29    22    1
     4    22    23   ar
     5    23    24   ar
     6    24    21    1
     7    21     1    1
     8     1     2   ar
     9     2     3   ar
    10     3     4   ar
    11     4     7    1
    12     7     8   am
    13     8     9    2
    14     8    11    1
    15    11    12   ar
    16    12    13   ar
    17    13    14   ar
    18    14    17    1
    19    17    18    1
    20    17    19    1
    21    17    20    1
    22    14    15   ar
    23    15    16   ar
    24     4     5   ar
    25     5     6   ar
    26    24    25   ar
    27    25    26   ar
    28    26    31    1
    29    31    32    1
    30    31    33    1
    31    26    27   ar
    32    27    34    1
    33    34    35    1
    34    35    36   ar
    35    35    37   ar
    36    27    22   ar
    37     6     1   ar
    38    16    11   ar
    39     7    10    1
@<TRIPOS>MOLECULE
*****
 37 39 0 0 0
SMALL
GASTEIGER

@<TRIPOS>ATOM
      1 C          59.2782   90.2654    6.3833 C.ar    1  UNL1       -0.0145
      2 C          59.0032   88.8736    5.8959 C.ar    1  UNL1       -0.0026
      3 C          59.4558   87.6931    6.7030 C.ar    1  UNL1        0.0144
      4 C          60.1834   87.9044    7.9977 C.ar    1  UNL1        0.0505
      5 C          60.4583   89.2960    8.4851 C.ar    1  UNL1        0.0144
      6 C          60.0057   90.4765    7.6780 C.ar    1  UNL1       -0.0026
      7 N          60.6360   86.7239    8.8049 N.am    1  UNL1       -0.2804
      8 C          61.9142   86.7955    9.5867 C.2     1  UNL1        0.2495
      9 O          62.7398   88.0476    9.5613 O.2     1  UNL1       -0.2698
     10 H          60.0942   85.9020    8.8216 H       1  UNL1        0.1552
     11 C          62.3669   85.6150   10.3939 C.ar    1  UNL1        0.0537
     12 C          62.0590   85.5467   11.8603 C.ar    1  UNL1        0.0045
     13 C          62.5117   84.3662   12.6675 C.ar    1  UNL1        0.0040
     14 C          63.2721   83.2540   12.0083 C.ar    1  UNL1        0.0714
     15 C          63.5800   83.3223   10.5417 C.ar    1  UNL1        0.0040
     16 C          63.1274   84.5028    9.7345 C.ar    1  UNL1        0.0045
     17 C          63.7247   82.0735   12.8154 C.3     1  UNL1        0.4186
     18 F          64.1774   80.8930   13.6226 F       1  UNL1       -0.1659
     19 F          64.2851   82.9989   13.8545 F       1  UNL1       -0.1659
     20 F          63.1643   81.1482   11.7764 F       1  UNL1       -0.1659
     21 C          58.8255   91.4459    5.5762 C.3     1  UNL1        0.0920
     22 C          59.6194   92.8601    1.9540 C.ar    1  UNL1        0.1321
     23 N          58.8598   92.4561    3.1827 N.ar    1  UNL1       -0.2159
     24 C          59.5852   91.8499    4.3474 C.ar    1  UNL1        0.1463
     25 N          61.0701   91.6478    4.2834 N.ar    1  UNL1       -0.2159
     26 C          61.8296   92.0519    3.0547 C.ar    1  UNL1        0.1321
     27 C          61.1043   92.6580    1.8900 C.ar    1  UNL1        0.0466
     28 C          58.9656   94.9450    0.5484 C.3     1  UNL1        0.1136
     29 N          58.8940   93.4662    0.7894 N.pl3   1  UNL1       -0.2899
     30 C          58.2838   92.9418    0.0489 C.3     1  UNL1        0.1136
     31 N          63.3146   91.8498    2.9906 N.pl3   1  UNL1       -0.2899
     32 C          64.2154   93.0047    2.6666 C.3     1  UNL1        0.1136
     33 C          63.8988   90.4929    3.2504 C.3     1  UNL1        0.1136
     34 C          61.8639   93.0621    0.6612 C.3     1  UNL1        0.0736
     35 C          62.3092   94.4840    0.4885 C.2     1  UNL1        0.0549
     36 O          62.1409   95.4643    1.6113 O.co2   1  UNL1       -0.5488
     37 O          62.7673   94.9269   -0.4002 O.co2   1  UNL1       -0.5488
@<TRIPOS>UNITY_ATOM_ATTR
36 1
charge -1
@<TRIPOS>BOND
     1    28    29    1
     2    29    30    1
     3    29    22    1
     4    22    23   ar
     5    23    24   ar
     6    24    21    1
     7    21     1    1
     8     1     2   ar
     9     2     3   ar
    10     3     4   ar
    11     4     7    1
    12     7     8   am
    13     8     9    2
    14     8    11    1
    15    11    12   ar
    16    12    13   ar
    17    13    14   ar
    18    14    17    1
    19    17    18    1
    20    17    19    1
    21    17    20    1
    22    14    15   ar
    23    15    16   ar
    24     4     5   ar
    25     5     6   ar
    26    24    25   ar
    27    25    26   ar
    28    26    31    1
    29    31    32    1
    30    31    33    1
    31    26    27   ar
    32    27    34    1
    33    34    35    1
    34    35    36   ar
    35    35    37   ar
    36    27    22   ar
    37     6     1   ar
    38    16    11   ar
    39     7    10    1
@<TRIPOS>MOLECULE
*****
 37 39 0 0 0
SMALL
GASTEIGER

@<TRIPOS>ATOM
      1 C          59.0651   91.5286    4.7574 C.ar    1  UNL1       -0.0145
      2 C          58.0455   90.7962    5.5785 C.ar    1  UNL1       -0.0026
      3 C          58.4828   89.7388    6.5485 C.ar    1  UNL1        0.0144
      4 C          59.9396   89.4138    6.6972 C.ar    1  UNL1        0.0505
      5 C          60.9591   90.1462    5.8762 C.ar    1  UNL1        0.0144
      6 C          60.5219   91.2036    4.9063 C.ar    1  UNL1       -0.0026
      7 N          60.3769   88.3564    7.6672 N.am    1  UNL1       -0.2804
      8 C          61.0581   88.7466    8.9454 C.2     1  UNL1        0.2495
      9 O          61.3020   90.1942    9.2536 O.2     1  UNL1       -0.2698
     10 H          60.2168   87.4063    7.4648 H       1  UNL1        0.1552
     11 C          61.4954   87.6892    9.9153 C.ar    1  UNL1        0.0537
     12 C          62.2709   88.0705   11.1412 C.ar    1  UNL1        0.0045
     13 C          62.7082   87.0131   12.1112 C.ar    1  UNL1        0.0040
     14 C          62.3699   85.5744   11.8551 C.ar    1  UNL1        0.0714
     15 C          61.5943   85.1931   10.6291 C.ar    1  UNL1        0.0040
     16 C          61.1570   86.2505    9.6592 C.ar    1  UNL1        0.0045
     17 C          62.8071   84.5170   12.8250 C.3     1  UNL1        0.4186
     18 F          63.2444   83.4596   13.7949 F       1  UNL1       -0.1659
     19 F          62.2159   83.4604   11.9396 F       1  UNL1       -0.1659
     20 F          63.3983   85.5737   13.7104 F       1  UNL1       -0.1659
     21 C          58.6279   92.5860    3.7875 C.3     1  UNL1        0.0920
     22 C          61.8467   93.3269    1.5875 C.ar    1  UNL1        0.1321
     23 N          60.9827   92.9861    2.7653 N.ar    1  UNL1       -0.2159
     24 C          59.4919   92.9268    2.6096 C.ar    1  UNL1        0.1463
     25 N          58.8653   93.2084    1.2763 N.ar    1  UNL1       -0.2159
     26 C          59.7293   93.5492    0.0985 C.ar    1  UNL1        0.1321
     27 C          61.2200   93.6084    0.2541 C.ar    1  UNL1        0.0466
     28 C          64.0160   94.7045    1.9698 C.3     1  UNL1        0.1136
     29 N          63.3375   93.3861    1.7431 N.pl3   1  UNL1       -0.2899
     30 C          64.0364   92.5458    1.7113 C.3     1  UNL1        0.1136
     31 N          59.1027   93.8307   -1.2350 N.pl3   1  UNL1       -0.2899
     32 C          58.9600   92.7300   -2.2440 C.3     1  UNL1        0.1136
     33 C          58.6187   95.2129   -1.5594 C.3     1  UNL1        0.1136
     34 C          62.0841   93.9492   -0.9238 C.3     1  UNL1        0.0736
     35 C          62.2537   95.3802   -1.3404 C.2     1  UNL1        0.0549
     36 O          61.9327   95.7953   -2.7456 O.co2   1  UNL1       -0.5488
     37 O          62.6010   96.2100   -0.7186 O.co2   1  UNL1       -0.5488
@<TRIPOS>UNITY_ATOM_ATTR
36 1
charge -1
@<TRIPOS>BOND
     1    28    29    1
     2    29    30    1
     3    29    22    1
     4    22    23   ar
     5    23    24   ar
     6    24    21    1
     7    21     1    1
     8     1     2   ar
     9     2     3   ar
    10     3     4   ar
    11     4     7    1
    12     7     8   am
    13     8     9    2
    14     8    11    1
    15    11    12   ar
    16    12    13   ar
    17    13    14   ar
    18    14    17    1
    19    17    18    1
    20    17    19    1
    21    17    20    1
    22    14    15   ar
    23    15    16   ar
    24     4     5   ar
    25     5     6   ar
    26    24    25   ar
    27    25    26   ar
    28    26    31    1
    29    31    32    1
    30    31    33    1
    31    26    27   ar
    32    27    34    1
    33    34    35    1
    34    35    36   ar
    35    35    37   ar
    36    27    22   ar
    37     6     1   ar
    38    16    11   ar
    39     7    10    1
