@<TRIPOS>MOLECULE
*****
 34 38 0 0 0
SMALL
GASTEIGER

@<TRIPOS>ATOM
      1 C          62.7740   86.9290   11.9499 C.2     1  UNL1        0.2506
      2 O          63.5889   87.5359   13.0534 O.2     1  UNL1       -0.2699
      3 N          61.7658   87.7629   11.2165 N.am    1  UNL1       -0.2723
      4 C          60.9509   87.1560   10.1129 C.3     1  UNL1        0.1257
      5 C          59.9426   87.9899    9.3794 C.3     1  UNL1        0.1637
      6 O          59.7492   89.4306    9.7494 O.3     1  UNL1       -0.3502
      7 C          60.5640   90.0375   10.8529 C.3     1  UNL1        0.1622
      8 C          61.5723   89.2036   11.5864 C.3     1  UNL1        0.1096
      9 C          63.5478   81.1661   10.4700 C.3     1  UNL1        0.0307
     10 C          63.3544   82.6069   10.8400 C.ar    1  UNL1       -0.0243
     11 C          63.1934   83.6418    9.7663 C.ar    1  UNL1       -0.0043
     12 C          63.0000   85.0826   10.1363 C.ar    1  UNL1        0.0057
     13 C          62.9675   85.4883   11.5800 C.ar    1  UNL1        0.0726
     14 C          63.1284   84.4533   12.6537 C.ar    1  UNL1        0.1029
     15 C          63.3219   83.0126   12.2837 C.ar    1  UNL1       -0.0062
     16 C          63.4828   81.9776   13.3575 C.3     1  UNL1        0.0323
     17 N          63.0959   84.8591   14.0974 N.ar    1  UNL1       -0.1480
     18 N          64.2509   85.3988   14.8878 N.ar    1  UNL1       -0.1447
     19 C          63.7716   85.6696   16.2831 C.ar    1  UNL1        0.1446
     20 C          62.3203   85.2972   16.3551 C.ar    1  UNL1        0.1446
     21 N          61.9028   84.7963   15.0043 N.ar    1  UNL1       -0.1447
     22 C          62.3872   89.8105   12.6899 C.3     1  UNL1        0.0496
     23 C          63.5382   90.7148   12.3622 C.ar    1  UNL1       -0.0083
     24 C          64.5363   91.0730   13.4230 C.ar    1  UNL1        0.0175
     25 C          65.6873   91.9773   13.0953 C.ar    1  UNL1        0.1026
     26 C          65.8402   92.5234   11.7066 C.ar    1  UNL1        0.0218
     27 C          64.8421   92.1652   10.6458 C.ar    1  UNL1        0.0127
     28 C          63.6911   91.2609   10.9735 C.ar    1  UNL1        0.0538
     29 CL         62.6929   90.9028    9.9126 Cl      1  UNL1       -0.0826
     30 N          66.6854   92.3354   14.1562 N.ar    1  UNL1       -0.1478
     31 N          68.1577   92.5351   13.9502 N.ar    1  UNL1       -0.1447
     32 C          68.7688   92.8799   15.2760 C.ar    1  UNL1        0.1446
     33 C          67.6740   92.8932   16.3014 C.ar    1  UNL1        0.1446
     34 N          66.3865   92.5567   15.6093 N.ar    1  UNL1       -0.1447
@<TRIPOS>BOND
     1     9    10    1
     2    10    11   ar
     3    11    12   ar
     4    12    13   ar
     5    13     1    1
     6     1     2    2
     7     1     3   am
     8     3     4    1
     9     4     5    1
    10     5     6    1
    11     6     7    1
    12     7     8    1
    13     8    22    1
    14    22    23    1
    15    23    24   ar
    16    24    25   ar
    17    25    30    1
    18    30    31   ar
    19    31    32   ar
    20    32    33   ar
    21    33    34   ar
    22    25    26   ar
    23    26    27   ar
    24    27    28   ar
    25    28    29    1
    26    13    14   ar
    27    14    17    1
    28    17    18   ar
    29    18    19   ar
    30    19    20   ar
    31    20    21   ar
    32    14    15   ar
    33    15    16    1
    34    15    10   ar
    35     8     3    1
    36    28    23   ar
    37    21    17   ar
    38    34    30   ar
@<TRIPOS>MOLECULE
*****
 34 38 0 0 0
SMALL
GASTEIGER

@<TRIPOS>ATOM
      1 C          63.0807   87.0966   12.4138 C.2     1  UNL1        0.2506
      2 O          63.6350   87.4528   13.7613 O.2     1  UNL1       -0.2699
      3 N          62.4688   88.1592   11.5499 N.am    1  UNL1       -0.2723
      4 C          61.9143   87.8030   10.2023 C.3     1  UNL1        0.1257
      5 C          61.3025   88.8656    9.3384 C.3     1  UNL1        0.1637
      6 O          61.2450   90.2844    9.8219 O.3     1  UNL1       -0.3502
      7 C          61.7994   90.6406   11.1693 C.3     1  UNL1        0.1622
      8 C          62.4113   89.5780   12.0334 C.3     1  UNL1        0.1096
      9 C          63.3106   81.4215   10.4798 C.3     1  UNL1        0.0307
     10 C          63.2531   82.8403   10.9633 C.ar    1  UNL1       -0.0243
     11 C          63.2241   83.9687    9.9755 C.ar    1  UNL1       -0.0043
     12 C          63.1666   85.3875   10.4590 C.ar    1  UNL1        0.0057
     13 C          63.1382   85.6778   11.9303 C.ar    1  UNL1        0.0726
     14 C          63.1672   84.5494   12.9181 C.ar    1  UNL1        0.1029
     15 C          63.2247   83.1307   12.4346 C.ar    1  UNL1       -0.0062
     16 C          63.2538   82.0022   13.4225 C.3     1  UNL1        0.0323
     17 N          63.1388   84.8398   14.3896 N.ar    1  UNL1       -0.1480
     18 N          64.3286   85.1410   15.2519 N.ar    1  UNL1       -0.1447
     19 C          63.8408   85.3672   16.6522 C.ar    1  UNL1        0.1446
     20 C          62.3495   85.2059   16.6553 C.ar    1  UNL1        0.1446
     21 N          61.9157   84.8799   15.2569 N.ar    1  UNL1       -0.1447
     22 C          62.9657   89.9341   13.3809 C.3     1  UNL1        0.0496
     23 C          64.1275   90.8767   13.4886 C.ar    1  UNL1       -0.0083
     24 C          64.7674   91.4234   12.2469 C.ar    1  UNL1        0.0175
     25 C          65.9293   92.3660   12.3546 C.ar    1  UNL1        0.1026
     26 C          66.4513   92.7619   13.7040 C.ar    1  UNL1        0.0218
     27 C          65.8114   92.2152   14.9456 C.ar    1  UNL1        0.0127
     28 C          64.6495   91.2727   14.8379 C.ar    1  UNL1        0.0538
     29 CL         64.0096   90.7260   16.0796 Cl      1  UNL1       -0.0826
     30 N          66.5692   92.9126   11.1129 N.ar    1  UNL1       -0.1478
     31 N          66.0263   94.0159   10.2538 N.ar    1  UNL1       -0.1447
     32 C          66.9858   94.2371    9.1222 C.ar    1  UNL1        0.1446
     33 C          68.1218   93.2706    9.2821 C.ar    1  UNL1        0.1446
     34 N          67.8642   92.4521   10.5124 N.ar    1  UNL1       -0.1447
@<TRIPOS>BOND
     1     9    10    1
     2    10    11   ar
     3    11    12   ar
     4    12    13   ar
     5    13     1    1
     6     1     2    2
     7     1     3   am
     8     3     4    1
     9     4     5    1
    10     5     6    1
    11     6     7    1
    12     7     8    1
    13     8    22    1
    14    22    23    1
    15    23    24   ar
    16    24    25   ar
    17    25    30    1
    18    30    31   ar
    19    31    32   ar
    20    32    33   ar
    21    33    34   ar
    22    25    26   ar
    23    26    27   ar
    24    27    28   ar
    25    28    29    1
    26    13    14   ar
    27    14    17    1
    28    17    18   ar
    29    18    19   ar
    30    19    20   ar
    31    20    21   ar
    32    14    15   ar
    33    15    16    1
    34    15    10   ar
    35     8     3    1
    36    28    23   ar
    37    21    17   ar
    38    34    30   ar
@<TRIPOS>MOLECULE
*****
 34 38 0 0 0
SMALL
GASTEIGER

@<TRIPOS>ATOM
      1 C          63.5095   87.3894   13.2542 C.2     1  UNL1        0.2506
      2 O          63.4988   88.0227   11.8945 O.2     1  UNL1       -0.2699
      3 N          63.3917   88.2447   14.4808 N.am    1  UNL1       -0.2723
      4 C          63.4025   87.6114   15.8406 C.3     1  UNL1        0.1257
      5 C          63.2847   88.4667   17.0672 C.3     1  UNL1        0.1637
      6 O          63.1561   89.9552   16.9341 O.3     1  UNL1       -0.3502
      7 C          63.1454   90.5885   15.5745 C.3     1  UNL1        0.1622
      8 C          63.2632   89.7332   14.3477 C.3     1  UNL1        0.1096
      9 C          64.0237   81.4353   13.7865 C.3     1  UNL1        0.0307
     10 C          63.8952   82.9238   13.6535 C.ar    1  UNL1       -0.0243
     11 C          64.5146   83.8249   14.6802 C.ar    1  UNL1       -0.0043
     12 C          64.3861   85.3134   14.5471 C.ar    1  UNL1        0.0057
     13 C          63.6381   85.9009   13.3873 C.ar    1  UNL1        0.0726
     14 C          63.0186   84.9998   12.3605 C.ar    1  UNL1        0.1029
     15 C          63.1471   83.5113   12.4936 C.ar    1  UNL1       -0.0062
     16 C          62.5276   82.6102   11.4668 C.3     1  UNL1        0.0323
     17 N          62.2705   85.5873   11.2006 N.ar    1  UNL1       -0.1480
     18 N          62.6603   85.4824    9.7559 N.ar    1  UNL1       -0.1447
     19 C          61.6321   86.2131    8.9442 C.ar    1  UNL1        0.1446
     20 C          60.6068   86.7695    9.8872 C.ar    1  UNL1        0.1446
     21 N          61.0014   86.3827   11.2818 N.ar    1  UNL1       -0.1447
     22 C          63.2524   90.3665   12.9881 C.3     1  UNL1        0.0496
     23 C          64.3623   91.2904   12.5822 C.ar    1  UNL1       -0.0083
     24 C          65.4337   91.6537   13.5671 C.ar    1  UNL1        0.0175
     25 C          66.5435   92.5776   13.1612 C.ar    1  UNL1        0.1026
     26 C          66.5820   93.1381   11.7704 C.ar    1  UNL1        0.0218
     27 C          65.5106   92.7747   10.7855 C.ar    1  UNL1        0.0127
     28 C          64.4007   91.8509   11.1914 C.ar    1  UNL1        0.0538
     29 CL         63.3293   91.4875   10.2064 Cl      1  UNL1       -0.0826
     30 N          67.6149   92.9409   14.1462 N.ar    1  UNL1       -0.1478
     31 N          67.4602   93.8680   15.3152 N.ar    1  UNL1       -0.1447
     32 C          68.7787   93.9411   16.0266 C.ar    1  UNL1        0.1446
     33 C          69.7484   93.0591   15.2972 C.ar    1  UNL1        0.1446
     34 N          69.0291   92.4410   14.1350 N.ar    1  UNL1       -0.1447
@<TRIPOS>BOND
     1     9    10    1
     2    10    11   ar
     3    11    12   ar
     4    12    13   ar
     5    13     1    1
     6     1     2    2
     7     1     3   am
     8     3     4    1
     9     4     5    1
    10     5     6    1
    11     6     7    1
    12     7     8    1
    13     8    22    1
    14    22    23    1
    15    23    24   ar
    16    24    25   ar
    17    25    30    1
    18    30    31   ar
    19    31    32   ar
    20    32    33   ar
    21    33    34   ar
    22    25    26   ar
    23    26    27   ar
    24    27    28   ar
    25    28    29    1
    26    13    14   ar
    27    14    17    1
    28    17    18   ar
    29    18    19   ar
    30    19    20   ar
    31    20    21   ar
    32    14    15   ar
    33    15    16    1
    34    15    10   ar
    35     8     3    1
    36    28    23   ar
    37    21    17   ar
    38    34    30   ar
@<TRIPOS>MOLECULE
*****
 34 38 0 0 0
SMALL
GASTEIGER

@<TRIPOS>ATOM
      1 C          62.6978   88.7169   11.6835 C.2     1  UNL1        0.2506
      2 O          62.5240   90.2064   11.6520 O.2     1  UNL1       -0.2699
      3 N          63.3855   88.0666   12.8471 N.am    1  UNL1       -0.2723
      4 C          63.5595   86.5770   12.8787 C.3     1  UNL1        0.1257
      5 C          64.2471   85.9267   14.0424 C.3     1  UNL1        0.1637
      6 O          64.7610   86.7659   15.1745 O.3     1  UNL1       -0.3502
      7 C          64.5871   88.2554   15.1430 C.3     1  UNL1        0.1622
      8 C          63.8993   88.9058   13.9793 C.3     1  UNL1        0.1096
      9 C          60.6426   85.3600    7.1550 C.3     1  UNL1        0.0307
     10 C          61.1564   86.1992    8.2871 C.ar    1  UNL1       -0.0243
     11 C          62.5899   86.0862    8.7140 C.ar    1  UNL1       -0.0043
     12 C          63.1037   86.9254    9.8461 C.ar    1  UNL1        0.0057
     13 C          62.1840   87.8776   10.5514 C.ar    1  UNL1        0.0726
     14 C          60.7505   87.9906   10.1245 C.ar    1  UNL1        0.1029
     15 C          60.2367   87.1514    8.9923 C.ar    1  UNL1       -0.0062
     16 C          58.8031   87.2645    8.5655 C.3     1  UNL1        0.0323
     17 N          59.8308   88.9429   10.8297 N.ar    1  UNL1       -0.1480
     18 N          59.6156   90.3850   10.4773 N.ar    1  UNL1       -0.1447
     19 C          58.6166   90.9536   11.4409 C.ar    1  UNL1        0.1446
     20 C          58.2143   89.8629   12.3889 C.ar    1  UNL1        0.1446
     21 N          58.9647   88.6203   12.0112 N.ar    1  UNL1       -0.1447
     22 C          63.7255   90.3953   13.9477 C.3     1  UNL1        0.0496
     23 C          64.9286   91.2902   13.9079 C.ar    1  UNL1       -0.0083
     24 C          65.5979   91.5893   12.5993 C.ar    1  UNL1        0.0175
     25 C          66.8010   92.4841   12.5594 C.ar    1  UNL1        0.1026
     26 C          67.3349   93.0800   13.8282 C.ar    1  UNL1        0.0218
     27 C          66.6657   92.7809   15.1369 C.ar    1  UNL1        0.0127
     28 C          65.4625   91.8860   15.1767 C.ar    1  UNL1        0.0538
     29 CL         64.7933   91.5869   16.4854 Cl      1  UNL1       -0.0826
     30 N          67.4703   92.7832   11.2507 N.ar    1  UNL1       -0.1478
     31 N          67.2566   94.0074   10.4106 N.ar    1  UNL1       -0.1447
     32 C          68.1250   93.8914    9.1930 C.ar    1  UNL1        0.1446
     33 C          68.8753   92.5955    9.2806 C.ar    1  UNL1        0.1446
     34 N          68.4707   91.9106   10.5523 N.ar    1  UNL1       -0.1447
@<TRIPOS>BOND
     1     9    10    1
     2    10    11   ar
     3    11    12   ar
     4    12    13   ar
     5    13     1    1
     6     1     2    2
     7     1     3   am
     8     3     4    1
     9     4     5    1
    10     5     6    1
    11     6     7    1
    12     7     8    1
    13     8    22    1
    14    22    23    1
    15    23    24   ar
    16    24    25   ar
    17    25    30    1
    18    30    31   ar
    19    31    32   ar
    20    32    33   ar
    21    33    34   ar
    22    25    26   ar
    23    26    27   ar
    24    27    28   ar
    25    28    29    1
    26    13    14   ar
    27    14    17    1
    28    17    18   ar
    29    18    19   ar
    30    19    20   ar
    31    20    21   ar
    32    14    15   ar
    33    15    16    1
    34    15    10   ar
    35     8     3    1
    36    28    23   ar
    37    21    17   ar
    38    34    30   ar
@<TRIPOS>MOLECULE
*****
 34 38 0 0 0
SMALL
GASTEIGER

@<TRIPOS>ATOM
      1 C          62.7729   89.0105   11.6746 C.2     1  UNL1        0.2506
      2 O          62.9646   87.8410   12.5942 O.2     1  UNL1       -0.2699
      3 N          61.7264   88.9568   10.6013 N.am    1  UNL1       -0.2723
      4 C          61.5346   90.1263    9.6817 C.3     1  UNL1        0.1257
      5 C          60.4882   90.0726    8.6084 C.3     1  UNL1        0.1637
      6 O          59.6335   88.8495    8.4546 O.3     1  UNL1       -0.3502
      7 C          59.8253   87.6801    9.3741 C.3     1  UNL1        0.1622
      8 C          60.8718   87.7337   10.4475 C.3     1  UNL1        0.1096
      9 C          66.1914   93.9028   12.2897 C.3     1  UNL1        0.0307
     10 C          65.3368   92.6797   12.1359 C.ar    1  UNL1       -0.0243
     11 C          64.7845   92.3151   10.7898 C.ar    1  UNL1       -0.0043
     12 C          63.9298   91.0920   10.6361 C.ar    1  UNL1        0.0057
     13 C          63.6275   90.2335   11.8284 C.ar    1  UNL1        0.0726
     14 C          64.1798   90.5982   13.1744 C.ar    1  UNL1        0.1029
     15 C          65.0345   91.8213   13.3282 C.ar    1  UNL1       -0.0062
     16 C          65.5868   92.1859   14.6744 C.3     1  UNL1        0.0323
     17 N          63.8775   89.7397   14.3668 N.ar    1  UNL1       -0.1480
     18 N          64.5628   88.4541   14.7241 N.ar    1  UNL1       -0.1447
     19 C          63.9457   87.9360   15.9893 C.ar    1  UNL1        0.1446
     20 C          62.8791   88.9014   16.4140 C.ar    1  UNL1        0.1446
     21 N          62.8369   90.0161   15.4112 N.ar    1  UNL1       -0.1447
     22 C          61.0636   86.5643   11.3671 C.3     1  UNL1        0.0496
     23 C          61.9516   85.4266   10.9584 C.ar    1  UNL1       -0.0083
     24 C          62.1060   84.2355   11.8570 C.ar    1  UNL1        0.0175
     25 C          62.9940   83.0978   11.4483 C.ar    1  UNL1        0.1026
     26 C          63.7277   83.1512   10.1411 C.ar    1  UNL1        0.0218
     27 C          63.5733   84.3422    9.2426 C.ar    1  UNL1        0.0127
     28 C          62.6853   85.4799    9.6512 C.ar    1  UNL1        0.0538
     29 CL         62.5309   86.6711    8.7526 Cl      1  UNL1       -0.0826
     30 N          63.1484   81.9067   12.3470 N.ar    1  UNL1       -0.1478
     31 N          63.9776   81.8457   13.5955 N.ar    1  UNL1       -0.1447
     32 C          63.8424   80.4689   14.1750 C.ar    1  UNL1        0.1446
     33 C          62.9296   79.6788   13.2847 C.ar    1  UNL1        0.1446
     34 N          62.5007   80.5675   12.1549 N.ar    1  UNL1       -0.1447
@<TRIPOS>BOND
     1     9    10    1
     2    10    11   ar
     3    11    12   ar
     4    12    13   ar
     5    13     1    1
     6     1     2    2
     7     1     3   am
     8     3     4    1
     9     4     5    1
    10     5     6    1
    11     6     7    1
    12     7     8    1
    13     8    22    1
    14    22    23    1
    15    23    24   ar
    16    24    25   ar
    17    25    30    1
    18    30    31   ar
    19    31    32   ar
    20    32    33   ar
    21    33    34   ar
    22    25    26   ar
    23    26    27   ar
    24    27    28   ar
    25    28    29    1
    26    13    14   ar
    27    14    17    1
    28    17    18   ar
    29    18    19   ar
    30    19    20   ar
    31    20    21   ar
    32    14    15   ar
    33    15    16    1
    34    15    10   ar
    35     8     3    1
    36    28    23   ar
    37    21    17   ar
    38    34    30   ar
@<TRIPOS>MOLECULE
*****
 34 38 0 0 0
SMALL
GASTEIGER

@<TRIPOS>ATOM
      1 C          63.7091   87.9335   13.3711 C.2     1  UNL1        0.2506
      2 O          63.8545   88.6163   12.0435 O.2     1  UNL1       -0.2699
      3 N          63.5321   88.7481   14.6181 N.am    1  UNL1       -0.2723
      4 C          63.3866   88.0652   15.9457 C.3     1  UNL1        0.1257
      5 C          63.2096   88.8799   17.1927 C.3     1  UNL1        0.1637
      6 O          63.1781   90.3774   17.1121 O.3     1  UNL1       -0.3502
      7 C          63.3236   91.0602   15.7845 C.3     1  UNL1        0.1622
      8 C          63.5006   90.2456   14.5375 C.3     1  UNL1        0.1096
      9 C          63.8352   81.9434   13.6935 C.3     1  UNL1        0.0307
     10 C          63.8036   83.4410   13.6129 C.ar    1  UNL1       -0.0243
     11 C          64.5753   84.2617   14.6032 C.ar    1  UNL1       -0.0043
     12 C          64.5438   85.7592   14.5226 C.ar    1  UNL1        0.0057
     13 C          63.7406   86.4360   13.4517 C.ar    1  UNL1        0.0726
     14 C          62.9689   85.6152   12.4614 C.ar    1  UNL1        0.1029
     15 C          63.0004   84.1177   12.5420 C.ar    1  UNL1       -0.0062
     16 C          62.2286   83.2969   11.5516 C.3     1  UNL1        0.0323
     17 N          62.1656   86.2919   11.3904 N.ar    1  UNL1       -0.1480
     18 N          62.4994   86.3288    9.9285 N.ar    1  UNL1       -0.1447
     19 C          61.4277   87.1102    9.2279 C.ar    1  UNL1        0.1446
     20 C          60.4314   87.5561   10.2569 C.ar    1  UNL1        0.1446
     21 N          60.8875   87.0504   11.5934 N.ar    1  UNL1       -0.1447
     22 C          63.6460   90.9285   13.2099 C.3     1  UNL1        0.0496
     23 C          64.9031   91.6804   12.8870 C.ar    1  UNL1       -0.0083
     24 C          64.9092   92.6901   11.7777 C.ar    1  UNL1        0.0175
     25 C          66.1663   93.4420   11.4548 C.ar    1  UNL1        0.1026
     26 C          67.4174   93.1842   12.2411 C.ar    1  UNL1        0.0218
     27 C          67.4113   92.1745   13.3504 C.ar    1  UNL1        0.0127
     28 C          66.1542   91.4226   13.6733 C.ar    1  UNL1        0.0538
     29 CL         66.1482   90.4128   14.7826 Cl      1  UNL1       -0.0826
     30 N          66.1723   94.4517   10.3455 N.ar    1  UNL1       -0.1478
     31 N          65.4126   95.7450   10.3264 N.ar    1  UNL1       -0.1447
     32 C          65.7098   96.4381    9.0298 C.ar    1  UNL1        0.1446
     33 C          66.6532   95.5731    8.2475 C.ar    1  UNL1        0.1446
     34 N          66.9390   94.3455    9.0607 N.ar    1  UNL1       -0.1447
@<TRIPOS>BOND
     1     9    10    1
     2    10    11   ar
     3    11    12   ar
     4    12    13   ar
     5    13     1    1
     6     1     2    2
     7     1     3   am
     8     3     4    1
     9     4     5    1
    10     5     6    1
    11     6     7    1
    12     7     8    1
    13     8    22    1
    14    22    23    1
    15    23    24   ar
    16    24    25   ar
    17    25    30    1
    18    30    31   ar
    19    31    32   ar
    20    32    33   ar
    21    33    34   ar
    22    25    26   ar
    23    26    27   ar
    24    27    28   ar
    25    28    29    1
    26    13    14   ar
    27    14    17    1
    28    17    18   ar
    29    18    19   ar
    30    19    20   ar
    31    20    21   ar
    32    14    15   ar
    33    15    16    1
    34    15    10   ar
    35     8     3    1
    36    28    23   ar
    37    21    17   ar
    38    34    30   ar
