@<TRIPOS>MOLECULE
*****
 24 26 0 0 0
SMALL
GASTEIGER

@<TRIPOS>ATOM
      1 C          64.0462   88.6539   15.3755 C.ar    1  UNL1        0.0590
      2 C          63.2313   88.4691   16.6212 C.ar    1  UNL1        0.0344
      3 C          62.9791   87.0901   17.1546 C.ar    1  UNL1        0.1433
      4 F          62.1642   86.9052   18.4004 F       1  UNL1       -0.2041
      5 C          63.5417   85.8959   16.4424 C.ar    1  UNL1        0.0671
      6 C          64.3566   86.0807   15.1967 C.ar    1  UNL1        0.1478
      7 C          64.6088   87.4597   14.6632 C.ar    1  UNL1        0.0422
      8 N          65.6884   90.4459   14.4577 N.am    1  UNL1       -0.2606
      9 C          64.2985   90.0330   14.8419 C.2     1  UNL1        0.2511
     10 O          63.1608   90.9992   14.6927 O.2     1  UNL1       -0.2698
     11 H          66.4350   89.8117   14.5556 H       1  UNL1        0.1571
     12 C          65.9906   94.5948   11.2056 C.3     1  UNL1        0.0527
     13 C          66.0796   93.7320   12.4293 C.ar    1  UNL1        0.0678
     14 C          66.5782   94.1622   13.7771 C.ar    1  UNL1        0.0528
     15 S          66.4923   92.9835   14.7010 S.2     1  UNL1       -0.0512
     16 C          65.9406   91.8250   13.9241 C.ar    1  UNL1        0.1654
     17 N          65.6856   92.2875   12.5202 N.ar    1  UNL1       -0.2283
     18 O          64.9192   84.8865   14.4844 O.3     1  UNL1       -0.4503
     19 C          63.9997   83.8220   13.9635 C.ar    1  UNL1        0.1835
     20 C          63.4690   83.9088   12.5631 C.ar    1  UNL1        0.1396
     21 N          62.5496   82.8442   12.0422 N.ar    1  UNL1       -0.2192
     22 C          62.1608   81.6929   12.9216 C.ar    1  UNL1        0.1991
     23 N          62.6914   81.6061   14.3218 N.ar    1  UNL1       -0.2192
     24 C          63.6109   82.6706   14.8428 C.ar    1  UNL1        0.1396
@<TRIPOS>BOND
     1    12    13    1
     2    13    14   ar
     3    14    15   ar
     4    15    16   ar
     5    16     8    1
     6     8     9   am
     7     9    10    2
     8     9     1    1
     9     1     2   ar
    10     2     3   ar
    11     3     4    1
    12     3     5   ar
    13     5     6   ar
    14     6    18    1
    15    18    19    1
    16    19    20   ar
    17    20    21   ar
    18    21    22   ar
    19    22    23   ar
    20    23    24   ar
    21     6     7   ar
    22    16    17   ar
    23    17    13   ar
    24     7     1   ar
    25    24    19   ar
    26     8    11    1
@<TRIPOS>MOLECULE
*****
 24 26 0 0 0
SMALL
GASTEIGER

@<TRIPOS>ATOM
      1 C          63.1324   88.7097   12.2887 C.ar    1  UNL1        0.0590
      2 C          62.9568   89.4769   11.0118 C.ar    1  UNL1        0.0344
      3 C          63.2851   90.9397   10.9645 C.ar    1  UNL1        0.1433
      4 F          63.1095   91.7070    9.6876 F       1  UNL1       -0.2041
      5 C          63.7891   91.6354   12.1942 C.ar    1  UNL1        0.0671
      6 C          63.9647   90.8682   13.4711 C.ar    1  UNL1        0.1478
      7 C          63.6364   89.4054   13.5184 C.ar    1  UNL1        0.0422
      8 N          63.5391   86.3434   13.2811 N.am    1  UNL1       -0.2606
      9 C          62.8040   87.2468   12.3360 C.2     1  UNL1        0.2511
     10 O          61.7405   86.6875   11.4382 O.2     1  UNL1       -0.2698
     11 H          64.2372   86.7105   13.8704 H       1  UNL1        0.1571
     12 C          62.9428   81.2831   11.8959 C.3     1  UNL1        0.0527
     13 C          62.9367   82.5545   12.6917 C.ar    1  UNL1        0.0678
     14 C          62.4743   82.7042   14.1108 C.ar    1  UNL1        0.0528
     15 S          62.6437   84.1418   14.5043 S.2     1  UNL1       -0.0512
     16 C          63.2108   84.8804   13.3284 C.ar    1  UNL1        0.1654
     17 N          63.3918   83.8995   12.2082 N.ar    1  UNL1       -0.2283
     18 O          64.4687   91.5639   14.7008 O.3     1  UNL1       -0.4503
     19 C          65.9055   91.9857   14.7881 C.ar    1  UNL1        0.1835
     20 C          66.8343   91.7272   13.6389 C.ar    1  UNL1        0.1396
     21 N          68.2711   92.1491   13.7263 N.ar    1  UNL1       -0.2192
     22 C          68.7791   92.8295   14.9628 C.ar    1  UNL1        0.1991
     23 N          67.8504   93.0881   16.1119 N.ar    1  UNL1       -0.2192
     24 C          66.4135   92.6662   16.0246 C.ar    1  UNL1        0.1396
@<TRIPOS>BOND
     1    12    13    1
     2    13    14   ar
     3    14    15   ar
     4    15    16   ar
     5    16     8    1
     6     8     9   am
     7     9    10    2
     8     9     1    1
     9     1     2   ar
    10     2     3   ar
    11     3     4    1
    12     3     5   ar
    13     5     6   ar
    14     6    18    1
    15    18    19    1
    16    19    20   ar
    17    20    21   ar
    18    21    22   ar
    19    22    23   ar
    20    23    24   ar
    21     6     7   ar
    22    16    17   ar
    23    17    13   ar
    24     7     1   ar
    25    24    19   ar
    26     8    11    1
@<TRIPOS>MOLECULE
*****
 24 26 0 0 0
SMALL
GASTEIGER

@<TRIPOS>ATOM
      1 C          63.4044   90.0564   12.7339 C.ar    1  UNL1        0.0590
      2 C          63.1537   89.4854   14.0981 C.ar    1  UNL1        0.0344
      3 C          63.8037   90.1029   15.3006 C.ar    1  UNL1        0.1433
      4 F          63.5530   89.5319   16.6649 F       1  UNL1       -0.2041
      5 C          64.7045   91.2914   15.1390 C.ar    1  UNL1        0.0671
      6 C          64.9552   91.8624   13.7748 C.ar    1  UNL1        0.1478
      7 C          64.3052   91.2449   12.5723 C.ar    1  UNL1        0.0422
      8 N          62.3234   88.0027   11.5662 N.am    1  UNL1       -0.2606
      9 C          62.7544   89.4390   11.5313 C.2     1  UNL1        0.2511
     10 O          62.5354   90.2578   10.2938 O.2     1  UNL1       -0.2698
     11 H          62.4671   87.4652   12.3785 H       1  UNL1        0.1571
     12 C          58.8332   86.8755    7.7677 C.3     1  UNL1        0.0527
     13 C          60.0691   86.8671    8.6176 C.ar    1  UNL1        0.0678
     14 C          61.2772   86.0028    8.4084 C.ar    1  UNL1        0.0528
     15 S          62.2687   86.3231    9.4875 S.2     1  UNL1       -0.0512
     16 C          61.6733   87.3852   10.3636 C.ar    1  UNL1        0.1654
     17 N          60.3140   87.7214    9.8260 N.ar    1  UNL1       -0.2283
     18 O          65.8560   93.0509   13.6132 O.3     1  UNL1       -0.4503
     19 C          66.4348   93.3759   12.2681 C.ar    1  UNL1        0.1835
     20 C          67.3342   92.3915   11.5809 C.ar    1  UNL1        0.1396
     21 N          67.9130   92.7165   10.2358 N.ar    1  UNL1       -0.2192
     22 C          67.5924   94.0258    9.5778 C.ar    1  UNL1        0.1991
     23 N          66.6930   95.0101   10.2649 N.ar    1  UNL1       -0.2192
     24 C          66.1142   94.6852   11.6101 C.ar    1  UNL1        0.1396
@<TRIPOS>BOND
     1    12    13    1
     2    13    14   ar
     3    14    15   ar
     4    15    16   ar
     5    16     8    1
     6     8     9   am
     7     9    10    2
     8     9     1    1
     9     1     2   ar
    10     2     3   ar
    11     3     4    1
    12     3     5   ar
    13     5     6   ar
    14     6    18    1
    15    18    19    1
    16    19    20   ar
    17    20    21   ar
    18    21    22   ar
    19    22    23   ar
    20    23    24   ar
    21     6     7   ar
    22    16    17   ar
    23    17    13   ar
    24     7     1   ar
    25    24    19   ar
    26     8    11    1
@<TRIPOS>MOLECULE
*****
 24 26 0 0 0
SMALL
GASTEIGER

@<TRIPOS>ATOM
      1 C          62.6416   84.3188   11.8850 C.ar    1  UNL1        0.0590
      2 C          62.6468   82.8553   11.5563 C.ar    1  UNL1        0.0344
      3 C          63.0886   81.8572   12.5851 C.ar    1  UNL1        0.1433
      4 F          63.0939   80.3936   12.2565 F       1  UNL1       -0.2041
      5 C          63.5253   82.3226   13.9426 C.ar    1  UNL1        0.0671
      6 C          63.5200   83.7861   14.2713 C.ar    1  UNL1        0.1478
      7 C          63.0782   84.7842   13.2425 C.ar    1  UNL1        0.0422
      8 N          61.2241   86.3944   11.2270 N.am    1  UNL1       -0.2606
      9 C          62.1997   85.3170   10.8562 C.2     1  UNL1        0.2511
     10 O          62.7334   85.2378    9.4566 O.2     1  UNL1       -0.2698
     11 H          60.8738   86.4463   12.1456 H       1  UNL1        0.1571
     12 C          58.9748   88.5526    6.9652 C.3     1  UNL1        0.0527
     13 C          59.7483   88.3846    8.2392 C.ar    1  UNL1        0.0678
     14 C          60.4563   89.4727    8.9909 C.ar    1  UNL1        0.0528
     15 S          61.0954   88.8595   10.2016 S.2     1  UNL1       -0.0512
     16 C          60.7822   87.3926   10.1981 C.ar    1  UNL1        0.1654
     17 N          59.9498   87.0990    8.9854 N.ar    1  UNL1       -0.2283
     18 O          63.9566   84.2515   15.6288 O.3     1  UNL1       -0.4503
     19 C          63.6746   85.6583   16.0659 C.ar    1  UNL1        0.1835
     20 C          64.1196   86.8113   15.2158 C.ar    1  UNL1        0.1396
     21 N          63.8376   88.2182   15.6530 N.ar    1  UNL1       -0.2192
     22 C          63.1106   88.4722   16.9402 C.ar    1  UNL1        0.1991
     23 N          62.6656   87.3193   17.7903 N.ar    1  UNL1       -0.2192
     24 C          62.9476   85.9123   17.3532 C.ar    1  UNL1        0.1396
@<TRIPOS>BOND
     1    12    13    1
     2    13    14   ar
     3    14    15   ar
     4    15    16   ar
     5    16     8    1
     6     8     9   am
     7     9    10    2
     8     9     1    1
     9     1     2   ar
    10     2     3   ar
    11     3     4    1
    12     3     5   ar
    13     5     6   ar
    14     6    18    1
    15    18    19    1
    16    19    20   ar
    17    20    21   ar
    18    21    22   ar
    19    22    23   ar
    20    23    24   ar
    21     6     7   ar
    22    16    17   ar
    23    17    13   ar
    24     7     1   ar
    25    24    19   ar
    26     8    11    1
@<TRIPOS>MOLECULE
*****
 24 26 0 0 0
SMALL
GASTEIGER

@<TRIPOS>ATOM
      1 C          61.4992   87.9094   10.9636 C.ar    1  UNL1        0.0590
      2 C          60.1631   88.4349   11.3977 C.ar    1  UNL1        0.0344
      3 C          59.9031   89.9122   11.4004 C.ar    1  UNL1        0.1433
      4 F          58.5669   90.4378   11.8346 F       1  UNL1       -0.2041
      5 C          60.9793   90.8639   10.9691 C.ar    1  UNL1        0.0671
      6 C          62.3155   90.3384   10.5350 C.ar    1  UNL1        0.1478
      7 C          62.5754   88.8611   10.5322 C.ar    1  UNL1        0.0422
      8 N          62.5999   85.8165   12.0399 N.am    1  UNL1       -0.2606
      9 C          61.7593   86.4320   10.9609 C.2     1  UNL1        0.2511
     10 O          61.1786   85.5703    9.8791 O.2     1  UNL1       -0.2698
     11 H          62.9810   86.3820   12.7499 H       1  UNL1        0.1571
     12 C          62.6881   80.7304   13.4556 C.3     1  UNL1        0.0527
     13 C          62.9005   82.0013   12.6879 C.ar    1  UNL1        0.0678
     14 C          63.6196   82.1303   11.3778 C.ar    1  UNL1        0.0528
     15 S          63.5946   83.5753   10.9756 S.2     1  UNL1       -0.0512
     16 C          62.8599   84.3391   12.0372 C.ar    1  UNL1        0.1654
     17 N          62.4310   83.3664   13.0953 N.ar    1  UNL1       -0.2283
     18 O          63.3916   91.2901   10.1036 O.3     1  UNL1       -0.4503
     19 C          64.3121   91.8933   11.1228 C.ar    1  UNL1        0.1835
     20 C          64.2093   91.4833   12.5621 C.ar    1  UNL1        0.1396
     21 N          65.1297   92.0866   13.5813 N.ar    1  UNL1       -0.2192
     22 C          66.1530   93.0998   13.1614 C.ar    1  UNL1        0.1991
     23 N          66.2558   93.5098   11.7222 N.ar    1  UNL1       -0.2192
     24 C          65.3353   92.9065   10.7029 C.ar    1  UNL1        0.1396
@<TRIPOS>BOND
     1    12    13    1
     2    13    14   ar
     3    14    15   ar
     4    15    16   ar
     5    16     8    1
     6     8     9   am
     7     9    10    2
     8     9     1    1
     9     1     2   ar
    10     2     3   ar
    11     3     4    1
    12     3     5   ar
    13     5     6   ar
    14     6    18    1
    15    18    19    1
    16    19    20   ar
    17    20    21   ar
    18    21    22   ar
    19    22    23   ar
    20    23    24   ar
    21     6     7   ar
    22    16    17   ar
    23    17    13   ar
    24     7     1   ar
    25    24    19   ar
    26     8    11    1
@<TRIPOS>MOLECULE
*****
 24 26 0 0 0
SMALL
GASTEIGER

@<TRIPOS>ATOM
      1 C          62.8166   87.8262   11.8201 C.ar    1  UNL1        0.0590
      2 C          62.0331   88.0858   10.5676 C.ar    1  UNL1        0.0344
      3 C          61.7587   89.4950   10.1332 C.ar    1  UNL1        0.1433
      4 F          60.9752   89.7547    8.8807 F       1  UNL1       -0.2041
      5 C          62.2678   90.6446   10.9513 C.ar    1  UNL1        0.0671
      6 C          63.0512   90.3850   12.2038 C.ar    1  UNL1        0.1478
      7 C          63.3256   88.9758   12.6382 C.ar    1  UNL1        0.0422
      8 N          62.8570   85.2801   11.3043 N.am    1  UNL1       -0.2606
      9 C          63.0911   86.4169   12.2545 C.2     1  UNL1        0.2511
     10 O          63.5996   86.1445   13.6392 O.2     1  UNL1       -0.2698
     11 H          62.5233   85.4589   10.3956 H       1  UNL1        0.1571
     12 C          62.5281   80.6423   13.8069 C.3     1  UNL1        0.0527
     13 C          62.9803   81.7391   12.8891 C.ar    1  UNL1        0.0678
     14 C          64.1274   81.6654   11.9254 C.ar    1  UNL1        0.0528
     15 S          64.2209   82.9830   11.2144 S.2     1  UNL1       -0.0512
     16 C          63.1315   83.8708   11.7388 C.ar    1  UNL1        0.1654
     17 N          62.3648   83.1021   12.7737 N.ar    1  UNL1       -0.2283
     18 O          63.5602   91.5346   13.0219 O.3     1  UNL1       -0.4503
     19 C          65.0335   91.6973   13.2518 C.ar    1  UNL1        0.1835
     20 C          65.6541   91.1971   14.5225 C.ar    1  UNL1        0.1396
     21 N          67.1274   91.3598   14.7524 N.ar    1  UNL1       -0.2192
     22 C          67.9802   92.0227   13.7115 C.ar    1  UNL1        0.1991
     23 N          67.3597   92.5228   12.4408 N.ar    1  UNL1       -0.2192
     24 C          65.8863   92.3602   12.2109 C.ar    1  UNL1        0.1396
@<TRIPOS>BOND
     1    12    13    1
     2    13    14   ar
     3    14    15   ar
     4    15    16   ar
     5    16     8    1
     6     8     9   am
     7     9    10    2
     8     9     1    1
     9     1     2   ar
    10     2     3   ar
    11     3     4    1
    12     3     5   ar
    13     5     6   ar
    14     6    18    1
    15    18    19    1
    16    19    20   ar
    17    20    21   ar
    18    21    22   ar
    19    22    23   ar
    20    23    24   ar
    21     6     7   ar
    22    16    17   ar
    23    17    13   ar
    24     7     1   ar
    25    24    19   ar
    26     8    11    1
@<TRIPOS>MOLECULE
*****
 24 26 0 0 0
SMALL
GASTEIGER

@<TRIPOS>ATOM
      1 C          62.5384   89.0598   11.3060 C.ar    1  UNL1        0.0590
      2 C          61.6811   89.8135   10.3330 C.ar    1  UNL1        0.0344
      3 C          60.7340   89.0719    9.4369 C.ar    1  UNL1        0.1433
      4 F          59.8767   89.8256    8.4637 F       1  UNL1       -0.2041
      5 C          60.6442   87.5766    9.5139 C.ar    1  UNL1        0.0671
      6 C          61.5015   86.8228   10.4869 C.ar    1  UNL1        0.1478
      7 C          62.4486   87.5644   11.3830 C.ar    1  UNL1        0.0422
      8 N          63.9496   91.1778   11.8281 N.am    1  UNL1       -0.2606
      9 C          63.4855   89.8014   12.2022 C.2     1  UNL1        0.2511
     10 O          63.9685   89.1665   13.4725 O.2     1  UNL1       -0.2698
     11 H          63.6326   91.5945   10.9943 H       1  UNL1        0.1571
     12 C          66.6153   92.7702   16.0987 C.3     1  UNL1        0.0527
     13 C          66.1221   92.6513   14.6872 C.ar    1  UNL1        0.0678
     14 C          66.5864   93.4698   13.5191 C.ar    1  UNL1        0.0528
     15 S          65.8291   93.0174   12.3058 S.2     1  UNL1       -0.0512
     16 C          64.8968   91.9194   12.7242 C.ar    1  UNL1        0.1654
     17 N          65.0778   91.6931   14.1959 N.ar    1  UNL1       -0.2283
     18 O          61.4117   85.3275   10.5639 O.3     1  UNL1       -0.4503
     19 C          62.5264   84.5403   11.1866 C.ar    1  UNL1        0.1835
     20 C          62.6200   84.4245   12.6792 C.ar    1  UNL1        0.1396
     21 N          63.7347   83.6373   13.3019 N.ar    1  UNL1       -0.2192
     22 C          64.7557   82.9658   12.4320 C.ar    1  UNL1        0.1991
     23 N          64.6621   83.0816   10.9395 N.ar    1  UNL1       -0.2192
     24 C          63.5474   83.8689   10.3167 C.ar    1  UNL1        0.1396
@<TRIPOS>BOND
     1    12    13    1
     2    13    14   ar
     3    14    15   ar
     4    15    16   ar
     5    16     8    1
     6     8     9   am
     7     9    10    2
     8     9     1    1
     9     1     2   ar
    10     2     3   ar
    11     3     4    1
    12     3     5   ar
    13     5     6   ar
    14     6    18    1
    15    18    19    1
    16    19    20   ar
    17    20    21   ar
    18    21    22   ar
    19    22    23   ar
    20    23    24   ar
    21     6     7   ar
    22    16    17   ar
    23    17    13   ar
    24     7     1   ar
    25    24    19   ar
    26     8    11    1
@<TRIPOS>MOLECULE
*****
 24 26 0 0 0
SMALL
GASTEIGER

@<TRIPOS>ATOM
      1 C          62.1619   87.1045   11.0995 C.ar    1  UNL1        0.0590
      2 C          61.1095   87.0770   10.0310 C.ar    1  UNL1        0.0344
      3 C          60.6964   88.3493    9.3523 C.ar    1  UNL1        0.1433
      4 F          59.6439   88.3218    8.2838 F       1  UNL1       -0.2041
      5 C          61.3356   89.6490    9.7422 C.ar    1  UNL1        0.0671
      6 C          62.3880   89.6765   10.8106 C.ar    1  UNL1        0.1478
      7 C          62.8011   88.4043   11.4893 C.ar    1  UNL1        0.0422
      8 N          62.5685   84.5397   11.0170 N.am    1  UNL1       -0.2606
      9 C          62.5751   85.8322   11.7782 C.2     1  UNL1        0.2511
     10 O          62.9948   85.8524   13.2181 O.2     1  UNL1       -0.2698
     11 H          62.2930   84.5265   10.0719 H       1  UNL1        0.1571
     12 C          62.3845   79.8535   13.4430 C.3     1  UNL1        0.0527
     13 C          62.8971   81.1134   12.8108 C.ar    1  UNL1        0.0678
     14 C          64.3380   81.5059   12.6693 C.ar    1  UNL1        0.0528
     15 S          64.3902   82.8372   11.9801 S.2     1  UNL1       -0.0512
     16 C          62.9817   83.2674   11.6957 C.ar    1  UNL1        0.1654
     17 N          62.0589   82.2021   12.2090 N.ar    1  UNL1       -0.2283
     18 O          63.0273   90.9763   11.2004 O.3     1  UNL1       -0.4503
     19 C          63.6587   91.1257   12.5528 C.ar    1  UNL1        0.1835
     20 C          64.9053   91.9447   12.7122 C.ar    1  UNL1        0.1396
     21 N          65.5367   92.0941   14.0646 N.ar    1  UNL1       -0.2192
     22 C          64.9215   91.4246   15.2576 C.ar    1  UNL1        0.1991
     23 N          63.6750   90.6056   15.0983 N.ar    1  UNL1       -0.2192
     24 C          63.0435   90.4562   13.7459 C.ar    1  UNL1        0.1396
@<TRIPOS>BOND
     1    12    13    1
     2    13    14   ar
     3    14    15   ar
     4    15    16   ar
     5    16     8    1
     6     8     9   am
     7     9    10    2
     8     9     1    1
     9     1     2   ar
    10     2     3   ar
    11     3     4    1
    12     3     5   ar
    13     5     6   ar
    14     6    18    1
    15    18    19    1
    16    19    20   ar
    17    20    21   ar
    18    21    22   ar
    19    22    23   ar
    20    23    24   ar
    21     6     7   ar
    22    16    17   ar
    23    17    13   ar
    24     7     1   ar
    25    24    19   ar
    26     8    11    1
@<TRIPOS>MOLECULE
*****
 24 26 0 0 0
SMALL
GASTEIGER

@<TRIPOS>ATOM
      1 C          62.4917   88.4514   11.3381 C.ar    1  UNL1        0.0590
      2 C          61.6842   88.8060   10.1248 C.ar    1  UNL1        0.0344
      3 C          61.0671   87.7222    9.2915 C.ar    1  UNL1        0.1433
      4 F          60.2595   88.0768    8.0781 F       1  UNL1       -0.2041
      5 C          61.2574   86.2837    9.6716 C.ar    1  UNL1        0.0671
      6 C          62.0649   85.9290   10.8849 C.ar    1  UNL1        0.1478
      7 C          62.6820   87.0129   11.7181 C.ar    1  UNL1        0.0422
      8 N          63.6748   89.2123   13.5224 N.am    1  UNL1       -0.2606
      9 C          63.1088   89.5353   12.1714 C.2     1  UNL1        0.2511
     10 O          63.1600   90.9422   11.6536 O.2     1  UNL1       -0.2698
     11 H          63.6412   88.2889   13.8622 H       1  UNL1        0.1571
     12 C          66.8955   93.0544   15.1794 C.3     1  UNL1        0.0527
     13 C          65.7723   92.0622   15.1173 C.ar    1  UNL1        0.0678
     14 C          64.7108   91.8660   16.1588 C.ar    1  UNL1        0.0528
     15 S          63.7958   90.7745   15.6881 S.2     1  UNL1       -0.0512
     16 C          64.2919   90.2962   14.3557 C.ar    1  UNL1        0.1654
     17 N          65.5135   91.0921   14.0030 N.ar    1  UNL1       -0.2283
     18 O          62.2553   84.4905   11.2649 O.3     1  UNL1       -0.4503
     19 C          62.8530   84.1390   12.5950 C.ar    1  UNL1        0.1835
     20 C          64.3136   83.8134   12.6985 C.ar    1  UNL1        0.1396
     21 N          64.9113   83.4618   14.0286 N.ar    1  UNL1       -0.2192
     22 C          64.0484   83.4358   15.2552 C.ar    1  UNL1        0.1991
     23 N          62.5878   83.7614   15.1518 N.ar    1  UNL1       -0.2192
     24 C          61.9901   84.1130   13.8217 C.ar    1  UNL1        0.1396
@<TRIPOS>BOND
     1    12    13    1
     2    13    14   ar
     3    14    15   ar
     4    15    16   ar
     5    16     8    1
     6     8     9   am
     7     9    10    2
     8     9     1    1
     9     1     2   ar
    10     2     3   ar
    11     3     4    1
    12     3     5   ar
    13     5     6   ar
    14     6    18    1
    15    18    19    1
    16    19    20   ar
    17    20    21   ar
    18    21    22   ar
    19    22    23   ar
    20    23    24   ar
    21     6     7   ar
    22    16    17   ar
    23    17    13   ar
    24     7     1   ar
    25    24    19   ar
    26     8    11    1
