@<TRIPOS>MOLECULE
*****
 30 34 0 0 0
SMALL
GASTEIGER

@<TRIPOS>ATOM
      1 O          63.1687   89.5473   14.7742 O.3     1  UNL1       -0.4630
      2 C          66.7305   93.0765   13.4109 C.3     1  UNL1        0.0308
      3 C          65.5625   92.2052   13.0551 C.ar    1  UNL1       -0.0231
      4 C          64.9496   91.3119   14.0926 C.ar    1  UNL1        0.0324
      5 C          63.7816   90.4406   13.7367 C.ar    1  UNL1        0.1402
      6 C          63.2264   90.4626   12.3434 C.ar    1  UNL1        0.0479
      7 C          63.8394   91.3560   11.3059 C.ar    1  UNL1       -0.0171
      8 C          65.0074   92.2272   11.6617 C.ar    1  UNL1       -0.0292
      9 C          65.6202   93.1205   10.6242 C.3     1  UNL1        0.0304
     10 C          63.0825   91.1657   10.0249 C.3     1  UNL1        0.0606
     11 C          62.0020   90.1548   10.2706 C.ar    1  UNL1        0.0308
     12 S          60.8664   89.4124    9.6307 S.2     1  UNL1       -0.0685
     13 C          60.2536   88.5191   10.6682 C.ar    1  UNL1        0.1342
     14 N          61.0103   88.7094   11.9493 N.ar    1  UNL1       -0.2365
     15 C          62.0909   89.7203   11.7036 C.ar    1  UNL1        0.0868
     16 C          63.9658   88.4184   15.3574 C.3     1  UNL1        0.3201
     17 P          63.6562   87.0028   14.9696 P.3     1  UNL1        0.3872
     18 O          64.2344   87.5056   13.6800 O.2     1  UNL1       -0.2539
     19 O          63.1854   86.9916   16.3938 O.3     1  UNL1       -0.2916
     20 C          62.6059   85.7395   16.9822 C.3     1  UNL1        0.1543
     21 C          62.4971   84.4986   16.1466 C.3     1  UNL1        0.0672
     22 C          62.9678   84.5098   14.7224 C.3     1  UNL1        0.1488
     23 O          63.5473   85.7620   14.1339 O.3     1  UNL1       -0.2896
     24 C          62.8590   83.2690   13.8867 C.ar    1  UNL1        0.0059
     25 C          62.1747   82.0523   14.4361 C.ar    1  UNL1       -0.0019
     26 C          62.0659   80.8115   13.6004 C.ar    1  UNL1        0.0006
     27 C          62.6413   80.7871   12.2154 C.ar    1  UNL1        0.0114
     28 C          63.3255   82.0037   11.6660 C.ar    1  UNL1        0.0574
     29 CL         63.9009   81.9794   10.2810 Cl      1  UNL1       -0.0823
     30 C          63.4343   83.2446   12.5017 C.ar    1  UNL1        0.0095
@<TRIPOS>BOND
     1     2     3    1
     2     3     4   ar
     3     4     5   ar
     4     5     1    1
     5     1    16    1
     6    17    16    1
     7    17    18    2
     8    17    19    1
     9    19    20    1
    10    20    21    1
    11    21    22    1
    12    22    24    1
    13    24    25   ar
    14    25    26   ar
    15    26    27   ar
    16    27    28   ar
    17    28    29    1
    18    28    30   ar
    19    22    23    1
    20     5     6   ar
    21     6     7   ar
    22     7     8   ar
    23     8     9    1
    24     7    10    1
    25    10    11    1
    26    11    12   ar
    27    12    13   ar
    28    13    14   ar
    29    14    15   ar
    30     8     3   ar
    31    15    11   ar
    32    23    17    1
    33    15     6    1
    34    30    24   ar
@<TRIPOS>MOLECULE
*****
 30 34 0 0 0
SMALL
GASTEIGER

@<TRIPOS>ATOM
      1 O          62.4735   85.1024   14.9416 O.3     1  UNL1       -0.4630
      2 C          63.1566   80.1177   13.6431 C.3     1  UNL1        0.0308
      3 C          62.9710   81.5509   13.2416 C.ar    1  UNL1       -0.0231
      4 C          62.8151   82.6100   14.2924 C.ar    1  UNL1        0.0324
      5 C          62.6295   84.0433   13.8908 C.ar    1  UNL1        0.1402
      6 C          62.5999   84.4176   12.4386 C.ar    1  UNL1        0.0479
      7 C          62.7558   83.3585   11.3878 C.ar    1  UNL1       -0.0171
      8 C          62.9414   81.9252   11.7893 C.ar    1  UNL1       -0.0292
      9 C          63.0974   80.8662   10.7386 C.3     1  UNL1        0.0304
     10 C          62.6858   84.0238   10.0453 C.3     1  UNL1        0.0606
     11 C          62.4866   85.4940   10.2663 C.ar    1  UNL1        0.0308
     12 S          62.3203   86.8138    9.5731 S.2     1  UNL1       -0.0685
     13 C          62.1643   87.8728   10.6238 C.ar    1  UNL1        0.1342
     14 N          62.2343   87.2076   11.9664 N.ar    1  UNL1       -0.2365
     15 C          62.4335   85.7374   11.7454 C.ar    1  UNL1        0.0868
     16 C          63.6875   85.7300   15.5599 C.3     1  UNL1        0.3201
     17 P          64.0503   87.1472   15.2285 P.3     1  UNL1        0.3872
     18 O          64.8617   86.4223   14.1959 O.2     1  UNL1       -0.2539
     19 O          63.1130   87.3799   16.3762 O.3     1  UNL1       -0.2916
     20 C          62.8202   88.7781   16.8338 C.3     1  UNL1        0.1543
     21 C          63.4649   89.9436   16.1438 C.3     1  UNL1        0.0672
     22 C          64.4022   89.7108   14.9961 C.3     1  UNL1        0.1488
     23 O          64.6950   88.3126   14.5385 O.3     1  UNL1       -0.2896
     24 C          65.0469   90.8763   14.3061 C.ar    1  UNL1        0.0059
     25 C          66.0730   91.7002   15.0260 C.ar    1  UNL1       -0.0019
     26 C          66.7177   92.8656   14.3359 C.ar    1  UNL1        0.0006
     27 C          66.3363   93.2072   12.9261 C.ar    1  UNL1        0.0114
     28 C          65.3102   92.3832   12.2061 C.ar    1  UNL1        0.0574
     29 CL         64.9287   92.7248   10.7962 Cl      1  UNL1       -0.0823
     30 C          64.6655   91.2178   12.8962 C.ar    1  UNL1        0.0095
@<TRIPOS>BOND
     1     2     3    1
     2     3     4   ar
     3     4     5   ar
     4     5     1    1
     5     1    16    1
     6    17    16    1
     7    17    18    2
     8    17    19    1
     9    19    20    1
    10    20    21    1
    11    21    22    1
    12    22    24    1
    13    24    25   ar
    14    25    26   ar
    15    26    27   ar
    16    27    28   ar
    17    28    29    1
    18    28    30   ar
    19    22    23    1
    20     5     6   ar
    21     6     7   ar
    22     7     8   ar
    23     8     9    1
    24     7    10    1
    25    10    11    1
    26    11    12   ar
    27    12    13   ar
    28    13    14   ar
    29    14    15   ar
    30     8     3   ar
    31    15    11   ar
    32    23    17    1
    33    15     6    1
    34    30    24   ar
@<TRIPOS>MOLECULE
*****
 30 34 0 0 0
SMALL
GASTEIGER

@<TRIPOS>ATOM
      1 O          61.6359   88.8614   12.2110 O.3     1  UNL1       -0.4630
      2 C          59.4877   88.2164    7.5239 C.3     1  UNL1        0.0308
      3 C          60.2999   87.6807    8.6654 C.ar    1  UNL1       -0.0231
      4 C          60.5618   88.5390    9.8675 C.ar    1  UNL1        0.0324
      5 C          61.3741   88.0031   11.0091 C.ar    1  UNL1        0.1402
      6 C          61.9245   86.6091   10.9486 C.ar    1  UNL1        0.0479
      7 C          61.6626   85.7508    9.7466 C.ar    1  UNL1       -0.0171
      8 C          60.8504   86.2866    8.6050 C.ar    1  UNL1       -0.0292
      9 C          60.5885   85.4283    7.4030 C.3     1  UNL1        0.0304
     10 C          62.3300   84.4259    9.9688 C.3     1  UNL1        0.0606
     11 C          63.0042   84.4654   11.3081 C.ar    1  UNL1        0.0308
     12 S          63.8334   83.6709   12.2732 S.2     1  UNL1       -0.0685
     13 C          64.0952   84.5292   13.4752 C.ar    1  UNL1        0.1342
     14 N          63.4279   85.8541   13.2530 N.ar    1  UNL1       -0.2365
     15 C          62.7536   85.8147   11.9137 C.ar    1  UNL1        0.0868
     16 C          61.6790   90.3543   12.0716 C.3     1  UNL1        0.3201
     17 P          62.9625   91.0361   11.7004 P.3     1  UNL1        0.3872
     18 O          62.2372   91.1147   10.3897 O.2     1  UNL1       -0.2539
     19 O          63.2420   90.7207   13.1400 O.3     1  UNL1       -0.2916
     20 C          64.5531   91.1145   13.7531 C.3     1  UNL1        0.1543
     21 C          65.5847   91.8237   12.9267 C.3     1  UNL1        0.0672
     22 C          65.3051   92.1390   11.4871 C.3     1  UNL1        0.1488
     23 O          63.9940   91.7453   10.8739 O.3     1  UNL1       -0.2896
     24 C          66.3367   92.8482   10.6606 C.ar    1  UNL1        0.0059
     25 C          67.5202   92.0946   10.1300 C.ar    1  UNL1       -0.0019
     26 C          68.5517   92.8038    9.3035 C.ar    1  UNL1        0.0006
     27 C          68.3998   94.2663    9.0076 C.ar    1  UNL1        0.0114
     28 C          67.2163   95.0199    9.5382 C.ar    1  UNL1        0.0574
     29 CL         67.0644   96.4826    9.2423 Cl      1  UNL1       -0.0823
     30 C          66.1848   94.3108   10.3647 C.ar    1  UNL1        0.0095
@<TRIPOS>BOND
     1     2     3    1
     2     3     4   ar
     3     4     5   ar
     4     5     1    1
     5     1    16    1
     6    17    16    1
     7    17    18    2
     8    17    19    1
     9    19    20    1
    10    20    21    1
    11    21    22    1
    12    22    24    1
    13    24    25   ar
    14    25    26   ar
    15    26    27   ar
    16    27    28   ar
    17    28    29    1
    18    28    30   ar
    19    22    23    1
    20     5     6   ar
    21     6     7   ar
    22     7     8   ar
    23     8     9    1
    24     7    10    1
    25    10    11    1
    26    11    12   ar
    27    12    13   ar
    28    13    14   ar
    29    14    15   ar
    30     8     3   ar
    31    15    11   ar
    32    23    17    1
    33    15     6    1
    34    30    24   ar
@<TRIPOS>MOLECULE
*****
 30 34 0 0 0
SMALL
GASTEIGER

@<TRIPOS>ATOM
      1 O          61.0283   88.5092   12.0577 O.3     1  UNL1       -0.4630
      2 C          59.5095   87.7832    7.1418 C.3     1  UNL1        0.0308
      3 C          60.2758   87.3225    8.3462 C.ar    1  UNL1       -0.0231
      4 C          60.2689   88.1462    9.5998 C.ar    1  UNL1        0.0324
      5 C          61.0352   87.6855   10.8042 C.ar    1  UNL1        0.1402
      6 C          61.8084   86.4011   10.7550 C.ar    1  UNL1        0.0479
      7 C          61.8153   85.5774    9.5014 C.ar    1  UNL1       -0.0171
      8 C          61.0490   86.0381    8.2970 C.ar    1  UNL1       -0.0292
      9 C          61.0560   85.2143    7.0435 C.3     1  UNL1        0.0304
     10 C          62.6628   84.3646    9.7484 C.3     1  UNL1        0.0606
     11 C          63.1797   84.4388   11.1546 C.ar    1  UNL1        0.0308
     12 S          64.0228   83.7351   12.1763 S.2     1  UNL1       -0.0685
     13 C          64.0159   84.5588   13.4298 C.ar    1  UNL1        0.1342
     14 N          63.1684   85.7716   13.1829 N.ar    1  UNL1       -0.2365
     15 C          62.6516   85.6974   11.7767 C.ar    1  UNL1        0.0868
     16 C          61.3047   89.9819   11.9890 C.3     1  UNL1        0.3201
     17 P          62.6004   90.5271   12.5125 P.3     1  UNL1        0.3872
     18 O          62.0666   89.8832   13.7577 O.2     1  UNL1       -0.2539
     19 O          62.6842   90.9816   11.0855 O.3     1  UNL1       -0.2916
     20 C          63.8783   91.7576   10.6145 C.3     1  UNL1        0.1543
     21 C          64.9886   92.0792   11.5704 C.3     1  UNL1        0.0672
     22 C          64.9048   91.6247   12.9974 C.3     1  UNL1        0.1488
     23 O          63.7106   90.8486   13.4685 O.3     1  UNL1       -0.2896
     24 C          66.0150   91.9462   13.9534 C.ar    1  UNL1        0.0059
     25 C          65.7011   92.2863   15.3803 C.ar    1  UNL1       -0.0019
     26 C          66.8114   92.6078   16.3363 C.ar    1  UNL1        0.0006
     27 C          68.2354   92.5892   15.8656 C.ar    1  UNL1        0.0114
     28 C          68.5493   92.2491   14.4388 C.ar    1  UNL1        0.0574
     29 CL         69.9734   92.2305   13.9680 Cl      1  UNL1       -0.0823
     30 C          67.4391   91.9276   13.4828 C.ar    1  UNL1        0.0095
@<TRIPOS>BOND
     1     2     3    1
     2     3     4   ar
     3     4     5   ar
     4     5     1    1
     5     1    16    1
     6    17    16    1
     7    17    18    2
     8    17    19    1
     9    19    20    1
    10    20    21    1
    11    21    22    1
    12    22    24    1
    13    24    25   ar
    14    25    26   ar
    15    26    27   ar
    16    27    28   ar
    17    28    29    1
    18    28    30   ar
    19    22    23    1
    20     5     6   ar
    21     6     7   ar
    22     7     8   ar
    23     8     9    1
    24     7    10    1
    25    10    11    1
    26    11    12   ar
    27    12    13   ar
    28    13    14   ar
    29    14    15   ar
    30     8     3   ar
    31    15    11   ar
    32    23    17    1
    33    15     6    1
    34    30    24   ar
@<TRIPOS>MOLECULE
*****
 30 34 0 0 0
SMALL
GASTEIGER

@<TRIPOS>ATOM
      1 O          61.9863   88.2863   12.2125 O.3     1  UNL1       -0.4630
      2 C          62.2363   85.4711    7.8522 C.3     1  UNL1        0.0308
      3 C          62.5091   85.6203    9.3196 C.ar    1  UNL1       -0.0231
      4 C          62.1113   86.8788   10.0324 C.ar    1  UNL1        0.0324
      5 C          62.3842   87.0278   11.4998 C.ar    1  UNL1        0.1402
      6 C          63.0548   85.9186   12.2545 C.ar    1  UNL1        0.0479
      7 C          63.4526   84.6600   11.5417 C.ar    1  UNL1       -0.0171
      8 C          63.1798   84.5109   10.0743 C.ar    1  UNL1       -0.0292
      9 C          63.5776   83.2524    9.3616 C.3     1  UNL1        0.0304
     10 C          64.0936   83.7439   12.5417 C.3     1  UNL1        0.0606
     11 C          64.0919   84.4362   13.8724 C.ar    1  UNL1        0.0308
     12 S          64.4870   84.2978   15.3128 S.2     1  UNL1       -0.0685
     13 C          64.0892   85.5563   16.0255 C.ar    1  UNL1        0.1342
     14 N          63.4482   86.4724   15.0256 N.ar    1  UNL1       -0.2365
     15 C          63.4499   85.7802   13.6949 C.ar    1  UNL1        0.0868
     16 C          61.7946   89.5574   11.4395 C.3     1  UNL1        0.3201
     17 P          62.9473   90.4968   11.2429 P.3     1  UNL1        0.3872
     18 O          62.4640   90.3779    9.8278 O.2     1  UNL1       -0.2539
     19 O          63.0304   90.2896   12.7262 O.3     1  UNL1       -0.2916
     20 C          64.0983   90.9804   13.5213 C.3     1  UNL1        0.1543
     21 C          65.0832   91.8785   12.8333 C.3     1  UNL1        0.0672
     22 C          65.0002   92.0857   11.3500 C.3     1  UNL1        0.1488
     23 O          63.9322   91.3949   10.5547 O.3     1  UNL1       -0.2896
     24 C          65.9850   92.9838   10.6618 C.ar    1  UNL1        0.0059
     25 C          67.1671   92.3950    9.9503 C.ar    1  UNL1       -0.0019
     26 C          68.1519   93.2931    9.2622 C.ar    1  UNL1        0.0006
     27 C          67.9548   94.7798    9.2855 C.ar    1  UNL1        0.0114
     28 C          66.7728   95.3686    9.9970 C.ar    1  UNL1        0.0574
     29 CL         66.5757   96.8554   10.0203 Cl      1  UNL1       -0.0823
     30 C          65.7879   94.4705   10.6851 C.ar    1  UNL1        0.0095
@<TRIPOS>BOND
     1     2     3    1
     2     3     4   ar
     3     4     5   ar
     4     5     1    1
     5     1    16    1
     6    17    16    1
     7    17    18    2
     8    17    19    1
     9    19    20    1
    10    20    21    1
    11    21    22    1
    12    22    24    1
    13    24    25   ar
    14    25    26   ar
    15    26    27   ar
    16    27    28   ar
    17    28    29    1
    18    28    30   ar
    19    22    23    1
    20     5     6   ar
    21     6     7   ar
    22     7     8   ar
    23     8     9    1
    24     7    10    1
    25    10    11    1
    26    11    12   ar
    27    12    13   ar
    28    13    14   ar
    29    14    15   ar
    30     8     3   ar
    31    15    11   ar
    32    23    17    1
    33    15     6    1
    34    30    24   ar
@<TRIPOS>MOLECULE
*****
 30 34 0 0 0
SMALL
GASTEIGER

@<TRIPOS>ATOM
      1 O          63.1793   89.5078   15.3105 O.3     1  UNL1       -0.4630
      2 C          61.5541   89.6981   10.3787 C.3     1  UNL1        0.0308
      3 C          62.4726   90.1778   11.4632 C.ar    1  UNL1       -0.0231
      4 C          62.3667   89.6030   12.8447 C.ar    1  UNL1        0.0324
      5 C          63.2853   90.0827   13.9291 C.ar    1  UNL1        0.1402
      6 C          64.3098   91.1373   13.6323 C.ar    1  UNL1        0.0479
      7 C          64.4157   91.7122   12.2508 C.ar    1  UNL1       -0.0171
      8 C          63.4972   91.2325   11.1663 C.ar    1  UNL1       -0.0292
      9 C          63.6032   91.8074    9.7849 C.3     1  UNL1        0.0304
     10 C          65.5155   92.7323   12.2564 C.3     1  UNL1        0.0606
     11 C          66.0891   92.7879   13.6413 C.ar    1  UNL1        0.0308
     12 S          67.1233   93.4527   14.5006 S.2     1  UNL1       -0.0685
     13 C          67.0173   92.8778   15.8819 C.ar    1  UNL1        0.1342
     14 N          65.9177   91.8577   15.8764 N.ar    1  UNL1       -0.2365
     15 C          65.3440   91.8021   14.4916 C.ar    1  UNL1        0.0868
     16 C          64.0478   88.3521   15.7106 C.3     1  UNL1        0.3201
     17 P          63.7222   86.9683   15.2320 P.3     1  UNL1        0.3872
     18 O          64.5187   87.4675   14.0631 O.2     1  UNL1       -0.2539
     19 O          63.0388   86.9496   16.5672 O.3     1  UNL1       -0.2916
     20 C          62.3065   85.7206   17.0177 C.3     1  UNL1        0.1543
     21 C          62.2575   84.5101   16.1332 C.3     1  UNL1        0.0672
     22 C          62.9409   84.5288   14.7980 C.3     1  UNL1        0.1488
     23 O          63.6733   85.7579   14.3474 O.3     1  UNL1       -0.2896
     24 C          62.8919   83.3184   13.9134 C.ar    1  UNL1        0.0059
     25 C          62.2120   82.0688   14.3892 C.ar    1  UNL1       -0.0019
     26 C          62.1631   80.8584   13.5046 C.ar    1  UNL1        0.0006
     27 C          62.7940   80.8975   12.1443 C.ar    1  UNL1        0.0114
     28 C          63.4739   82.1471   11.6686 C.ar    1  UNL1        0.0574
     29 CL         64.1048   82.1863   10.3082 Cl      1  UNL1       -0.0823
     30 C          63.5228   83.3575   12.5532 C.ar    1  UNL1        0.0095
@<TRIPOS>BOND
     1     2     3    1
     2     3     4   ar
     3     4     5   ar
     4     5     1    1
     5     1    16    1
     6    17    16    1
     7    17    18    2
     8    17    19    1
     9    19    20    1
    10    20    21    1
    11    21    22    1
    12    22    24    1
    13    24    25   ar
    14    25    26   ar
    15    26    27   ar
    16    27    28   ar
    17    28    29    1
    18    28    30   ar
    19    22    23    1
    20     5     6   ar
    21     6     7   ar
    22     7     8   ar
    23     8     9    1
    24     7    10    1
    25    10    11    1
    26    11    12   ar
    27    12    13   ar
    28    13    14   ar
    29    14    15   ar
    30     8     3   ar
    31    15    11   ar
    32    23    17    1
    33    15     6    1
    34    30    24   ar
@<TRIPOS>MOLECULE
*****
 30 34 0 0 0
SMALL
GASTEIGER

@<TRIPOS>ATOM
      1 O          61.7689   87.6439   11.9248 O.3     1  UNL1       -0.4630
      2 C          62.8014   84.8972    7.6365 C.3     1  UNL1        0.0308
      3 C          62.8705   85.0541    9.1266 C.ar    1  UNL1       -0.0231
      4 C          62.2851   86.2706    9.7807 C.ar    1  UNL1        0.0324
      5 C          62.3543   86.4274   11.2709 C.ar    1  UNL1        0.1402
      6 C          63.0087   85.3680   12.1070 C.ar    1  UNL1        0.0479
      7 C          63.5940   84.1515   11.4530 C.ar    1  UNL1       -0.0171
      8 C          63.5249   83.9946    9.9628 C.ar    1  UNL1       -0.0292
      9 C          64.1103   82.7782    9.3089 C.3     1  UNL1        0.0304
     10 C          64.1722   83.2801   12.5283 C.3     1  UNL1        0.0606
     11 C          63.9442   83.9579   13.8469 C.ar    1  UNL1        0.0308
     12 S          64.1606   83.8382   15.3264 S.2     1  UNL1       -0.0685
     13 C          63.5752   85.0546   15.9803 C.ar    1  UNL1        0.1342
     14 N          62.9971   85.9261   14.9050 N.ar    1  UNL1       -0.2365
     15 C          63.2251   85.2483   13.5865 C.ar    1  UNL1        0.0868
     16 C          62.1200   89.0108   11.4167 C.3     1  UNL1        0.3201
     17 P          63.1929   89.8103   12.0947 P.3     1  UNL1        0.3872
     18 O          62.9267   88.7812   13.1531 O.2     1  UNL1       -0.2539
     19 O          63.0865   90.5618   10.8009 O.3     1  UNL1       -0.2916
     20 C          63.9605   91.7552   10.5527 C.3     1  UNL1        0.1543
     21 C          64.9409   92.1974   11.5983 C.3     1  UNL1        0.0672
     22 C          65.0473   91.4459   12.8922 C.3     1  UNL1        0.1488
     23 O          64.1732   90.2524   13.1404 O.3     1  UNL1       -0.2896
     24 C          66.0277   91.8880   13.9379 C.ar    1  UNL1        0.0059
     25 C          65.5502   92.2222   15.3201 C.ar    1  UNL1       -0.0019
     26 C          66.5306   92.6642   16.3657 C.ar    1  UNL1        0.0006
     27 C          67.9883   92.7721   16.0294 C.ar    1  UNL1        0.0114
     28 C          68.4658   92.4379   14.6472 C.ar    1  UNL1        0.0574
     29 CL         69.9236   92.5457   14.3107 Cl      1  UNL1       -0.0823
     30 C          67.4854   91.9958   13.6015 C.ar    1  UNL1        0.0095
@<TRIPOS>BOND
     1     2     3    1
     2     3     4   ar
     3     4     5   ar
     4     5     1    1
     5     1    16    1
     6    17    16    1
     7    17    18    2
     8    17    19    1
     9    19    20    1
    10    20    21    1
    11    21    22    1
    12    22    24    1
    13    24    25   ar
    14    25    26   ar
    15    26    27   ar
    16    27    28   ar
    17    28    29    1
    18    28    30   ar
    19    22    23    1
    20     5     6   ar
    21     6     7   ar
    22     7     8   ar
    23     8     9    1
    24     7    10    1
    25    10    11    1
    26    11    12   ar
    27    12    13   ar
    28    13    14   ar
    29    14    15   ar
    30     8     3   ar
    31    15    11   ar
    32    23    17    1
    33    15     6    1
    34    30    24   ar
@<TRIPOS>MOLECULE
*****
 30 34 0 0 0
SMALL
GASTEIGER

@<TRIPOS>ATOM
      1 O          61.9660   90.2043   11.3162 O.3     1  UNL1       -0.4630
      2 C          65.9628   93.1762    9.8351 C.3     1  UNL1        0.0308
      3 C          65.2191   92.4410   10.9104 C.ar    1  UNL1       -0.0231
      4 C          63.9643   91.6902   10.5756 C.ar    1  UNL1        0.0324
      5 C          63.2207   90.9550   11.6510 C.ar    1  UNL1        0.1402
      6 C          63.7317   90.9705   13.0611 C.ar    1  UNL1        0.0479
      7 C          64.9864   91.7213   13.3960 C.ar    1  UNL1       -0.0171
      8 C          65.7301   92.4565   12.3206 C.ar    1  UNL1       -0.0292
      9 C          66.9848   93.2072   12.6555 C.3     1  UNL1        0.0304
     10 C          65.2464   91.5581   14.8643 C.3     1  UNL1        0.0606
     11 C          64.1523   90.7065   15.4369 C.ar    1  UNL1        0.0308
     12 S          63.6369   90.0794   16.6982 S.2     1  UNL1       -0.0685
     13 C          62.3822   89.3286   16.3634 C.ar    1  UNL1        0.1342
     14 N          62.1222   89.4918   14.8951 N.ar    1  UNL1       -0.2365
     15 C          63.2162   90.3434   14.3225 C.ar    1  UNL1        0.0868
     16 C          62.0111   89.0651   10.3414 C.3     1  UNL1        0.3201
     17 P          62.1700   87.6587   10.8381 P.3     1  UNL1        0.3872
     18 O          61.7975   88.3465   12.1181 O.2     1  UNL1       -0.2539
     19 O          62.4874   87.4593    9.3857 O.3     1  UNL1       -0.2916
     20 C          62.8343   86.0925    8.8746 C.3     1  UNL1        0.1543
     21 C          62.8638   84.9249    9.8159 C.3     1  UNL1        0.0672
     22 C          62.5465   85.1243   11.2683 C.3     1  UNL1        0.1488
     23 O          62.1996   86.4913   11.7795 O.3     1  UNL1       -0.2896
     24 C          62.5761   83.9568   12.2097 C.ar    1  UNL1        0.0059
     25 C          62.5681   84.1881   13.6918 C.ar    1  UNL1       -0.0019
     26 C          62.5977   83.0206   14.6331 C.ar    1  UNL1        0.0006
     27 C          62.6352   81.6220   14.0925 C.ar    1  UNL1        0.0114
     28 C          62.6431   81.3907   12.6104 C.ar    1  UNL1        0.0574
     29 CL         62.6805   79.9921   12.0697 Cl      1  UNL1       -0.0823
     30 C          62.6135   82.5582   11.6691 C.ar    1  UNL1        0.0095
@<TRIPOS>BOND
     1     2     3    1
     2     3     4   ar
     3     4     5   ar
     4     5     1    1
     5     1    16    1
     6    17    16    1
     7    17    18    2
     8    17    19    1
     9    19    20    1
    10    20    21    1
    11    21    22    1
    12    22    24    1
    13    24    25   ar
    14    25    26   ar
    15    26    27   ar
    16    27    28   ar
    17    28    29    1
    18    28    30   ar
    19    22    23    1
    20     5     6   ar
    21     6     7   ar
    22     7     8   ar
    23     8     9    1
    24     7    10    1
    25    10    11    1
    26    11    12   ar
    27    12    13   ar
    28    13    14   ar
    29    14    15   ar
    30     8     3   ar
    31    15    11   ar
    32    23    17    1
    33    15     6    1
    34    30    24   ar
@<TRIPOS>MOLECULE
*****
 30 34 0 0 0
SMALL
GASTEIGER

@<TRIPOS>ATOM
      1 O          62.2912   86.6991   10.4697 O.3     1  UNL1       -0.4630
      2 C          62.8234   82.1684   12.9576 C.3     1  UNL1        0.0308
      3 C          62.9949   83.6581   12.9207 C.ar    1  UNL1       -0.0231
      4 C          62.5573   84.4338   11.7136 C.ar    1  UNL1        0.0324
      5 C          62.7288   85.9235   11.6768 C.ar    1  UNL1        0.1402
      6 C          63.3379   86.6376   12.8468 C.ar    1  UNL1        0.0479
      7 C          63.7755   85.8619   14.0538 C.ar    1  UNL1       -0.0171
      8 C          63.6040   84.3722   14.0908 C.ar    1  UNL1       -0.0292
      9 C          64.0416   83.5966   15.2978 C.3     1  UNL1        0.0304
     10 C          64.3394   86.8324   15.0490 C.3     1  UNL1        0.0606
     11 C          64.2502   88.2077   14.4570 C.ar    1  UNL1        0.0308
     12 S          64.5436   89.6575   14.7063 S.2     1  UNL1       -0.0685
     13 C          64.1060   90.4331   13.4992 C.ar    1  UNL1        0.1342
     14 N          63.5422   89.4627   12.5040 N.ar    1  UNL1       -0.2365
     15 C          63.6313   88.0873   13.0960 C.ar    1  UNL1        0.0868
     16 C          61.1065   87.6152   10.5558 C.3     1  UNL1        0.3201
     17 P          60.5829   88.2824    9.3186 P.3     1  UNL1        0.3872
     18 O          61.3107   89.4336    9.9473 O.2     1  UNL1       -0.2539
     19 O          60.0370   86.8995    9.1196 O.3     1  UNL1       -0.2916
     20 C          59.2203   86.5837    7.9018 C.3     1  UNL1        0.1543
     21 C          58.9494   87.6508    6.8829 C.3     1  UNL1        0.0672
     22 C          59.4953   89.0337    7.0819 C.3     1  UNL1        0.1488
     23 O          60.3121   89.3495    8.2998 O.3     1  UNL1       -0.2896
     24 C          59.2245   90.1008    6.0631 C.ar    1  UNL1        0.0059
     25 C          57.8252   90.5983    5.8520 C.ar    1  UNL1       -0.0019
     26 C          57.5544   91.6654    4.8332 C.ar    1  UNL1        0.0006
     27 C          58.6827   92.2350    4.0255 C.ar    1  UNL1        0.0114
     28 C          60.0820   91.7374    4.2366 C.ar    1  UNL1        0.0574
     29 CL         61.2104   92.3069    3.4289 Cl      1  UNL1       -0.0823
     30 C          60.3528   90.6703    5.2554 C.ar    1  UNL1        0.0095
@<TRIPOS>BOND
     1     2     3    1
     2     3     4   ar
     3     4     5   ar
     4     5     1    1
     5     1    16    1
     6    17    16    1
     7    17    18    2
     8    17    19    1
     9    19    20    1
    10    20    21    1
    11    21    22    1
    12    22    24    1
    13    24    25   ar
    14    25    26   ar
    15    26    27   ar
    16    27    28   ar
    17    28    29    1
    18    28    30   ar
    19    22    23    1
    20     5     6   ar
    21     6     7   ar
    22     7     8   ar
    23     8     9    1
    24     7    10    1
    25    10    11    1
    26    11    12   ar
    27    12    13   ar
    28    13    14   ar
    29    14    15   ar
    30     8     3   ar
    31    15    11   ar
    32    23    17    1
    33    15     6    1
    34    30    24   ar
