@<TRIPOS>MOLECULE
*****
 30 32 0 0 0
SMALL
GASTEIGER

@<TRIPOS>ATOM
      1 C          64.3076   90.9158   15.4533 C.2     1  UNL1        0.2261
      2 O          63.3961   90.2186   16.4192 O.2     1  UNL1       -0.2748
      3 N          64.7580   90.2135   14.2067 N.am    1  UNL1       -0.2839
      4 H          65.3563   90.6712   13.5728 H       1  UNL1        0.1549
      5 C          64.2969   88.8141   13.9260 C.ar    1  UNL1        0.0503
      6 C          63.4936   88.5222   12.6933 C.ar    1  UNL1        0.0148
      7 C          63.0324   87.1227   12.4125 C.ar    1  UNL1        0.0058
      8 C          63.3746   86.0152   13.3645 C.ar    1  UNL1        0.0538
      9 C          64.1778   86.3070   14.5972 C.ar    1  UNL1        0.0058
     10 C          64.6390   87.7065   14.8779 C.ar    1  UNL1        0.0148
     11 C          62.9134   84.6157   13.0838 C.2     1  UNL1        0.2509
     12 O          62.3577   84.2655   11.7353 O.2     1  UNL1       -0.2698
     13 N          63.0080   83.5664   14.1516 N.am    1  UNL1       -0.2606
     14 H          63.3727   83.7963   15.0367 H       1  UNL1        0.1571
     15 C          62.5468   82.1670   13.8709 C.ar    1  UNL1        0.1658
     16 N          61.2543   81.5566   14.3256 N.ar    1  UNL1       -0.2224
     17 C          61.2059   80.1446   13.8219 C.ar    1  UNL1        0.1079
     18 C          62.4685   79.8822   13.0558 C.ar    1  UNL1        0.0588
     19 S          63.2973   81.1322   13.0861 S.2     1  UNL1       -0.0508
     20 C          64.7688   92.3152   15.7340 C.3     1  UNL1        0.0854
     21 C          67.3201   92.4693   16.2000 C.3     1  UNL1        0.0005
     22 C          66.1418   92.7507   15.3154 C.3     1  UNL1        0.0105
     23 C          66.3365   93.4675   14.0122 C.3     1  UNL1        0.0178
     24 C          66.5357   92.6848   12.7482 C.3     1  UNL1        0.0723
     25 N          66.8874   93.3943   11.4742 N.3     1  UNL1       -0.2685
     26 C          67.6221   92.6658   10.3882 C.3     1  UNL1        0.1046
     27 C          67.9738   93.3754    9.1143 C.3     1  UNL1        0.1595
     28 O          67.5908   94.8134    8.9264 O.3     1  UNL1       -0.3508
     29 C          66.8561   95.5419   10.0125 C.3     1  UNL1        0.1595
     30 C          66.5044   94.8324   11.2863 C.3     1  UNL1        0.1046
@<TRIPOS>BOND
     1    21    22    1
     2    22    23    1
     3    23    24    1
     4    24    25    1
     5    25    26    1
     6    26    27    1
     7    27    28    1
     8    28    29    1
     9    29    30    1
    10    22    20    1
    11    20     1    1
    12     1     2    2
    13     1     3   am
    14     3     5    1
    15     5     6   ar
    16     6     7   ar
    17     7     8   ar
    18     8    11    1
    19    11    12    2
    20    11    13   am
    21    13    15    1
    22    15    16   ar
    23    16    17   ar
    24    17    18   ar
    25    18    19   ar
    26     8     9   ar
    27     9    10   ar
    28    30    25    1
    29    10     5   ar
    30    19    15   ar
    31     3     4    1
    32    13    14    1
@<TRIPOS>MOLECULE
*****
 30 32 0 0 0
SMALL
GASTEIGER

@<TRIPOS>ATOM
      1 C          60.4331   88.6741   10.6521 C.2     1  UNL1        0.2261
      2 O          60.2316   88.9417   12.1142 O.2     1  UNL1       -0.2748
      3 N          61.6532   89.1985    9.9548 N.am    1  UNL1       -0.2839
      4 H          61.7854   89.0229    8.9951 H       1  UNL1        0.1549
      5 C          62.6719   89.9906   10.7195 C.ar    1  UNL1        0.0503
      6 C          63.0690   89.5654   12.1021 C.ar    1  UNL1        0.0148
      7 C          64.0876   90.3574   12.8669 C.ar    1  UNL1        0.0058
      8 C          64.7093   91.5748   12.2491 C.ar    1  UNL1        0.0538
      9 C          64.3122   92.0000   10.8666 C.ar    1  UNL1        0.0058
     10 C          63.2935   91.2079   10.1017 C.ar    1  UNL1        0.0148
     11 C          65.7279   92.3669   13.0138 C.2     1  UNL1        0.2509
     12 O          65.7269   93.8648   12.9349 O.2     1  UNL1       -0.2698
     13 N          66.7477   91.6610   13.8576 N.am    1  UNL1       -0.2606
     14 H          66.7484   90.6779   13.9094 H       1  UNL1        0.1571
     15 C          67.7664   92.4531   14.6224 C.ar    1  UNL1        0.1658
     16 N          69.2340   92.5264   14.3209 N.ar    1  UNL1       -0.2224
     17 C          69.8710   93.4296   15.3351 C.ar    1  UNL1        0.1079
     18 C          68.7970   93.9145   16.2633 C.ar    1  UNL1        0.0588
     19 S          67.4963   93.3110   15.8228 S.2     1  UNL1       -0.0508
     20 C          59.4144   87.8820    9.8874 C.3     1  UNL1        0.0854
     21 C          59.3238   88.1442    7.3042 C.3     1  UNL1        0.0005
     22 C          59.7400   87.3660    8.5171 C.3     1  UNL1        0.0105
     23 C          60.4818   86.0718    8.3597 C.3     1  UNL1        0.0178
     24 C          61.9644   86.0252    8.5828 C.3     1  UNL1        0.0723
     25 N          62.5277   85.2146    9.7123 N.3     1  UNL1       -0.2685
     26 C          62.1218   85.5133   11.1251 C.3     1  UNL1        0.1046
     27 C          62.6851   84.7027   12.2545 C.3     1  UNL1        0.1595
     28 O          63.6543   83.5935   11.9712 O.3     1  UNL1       -0.3508
     29 C          64.0602   83.2948   10.5584 C.3     1  UNL1        0.1595
     30 C          63.4969   84.1054    9.4290 C.3     1  UNL1        0.1046
@<TRIPOS>BOND
     1    21    22    1
     2    22    23    1
     3    23    24    1
     4    24    25    1
     5    25    26    1
     6    26    27    1
     7    27    28    1
     8    28    29    1
     9    29    30    1
    10    22    20    1
    11    20     1    1
    12     1     2    2
    13     1     3   am
    14     3     5    1
    15     5     6   ar
    16     6     7   ar
    17     7     8   ar
    18     8    11    1
    19    11    12    2
    20    11    13   am
    21    13    15    1
    22    15    16   ar
    23    16    17   ar
    24    17    18   ar
    25    18    19   ar
    26     8     9   ar
    27     9    10   ar
    28    30    25    1
    29    10     5   ar
    30    19    15   ar
    31     3     4    1
    32    13    14    1
@<TRIPOS>MOLECULE
*****
 30 32 0 0 0
SMALL
GASTEIGER

@<TRIPOS>ATOM
      1 C          64.0493   87.2302   15.5135 C.2     1  UNL1        0.2261
      2 O          65.3838   87.0407   14.8555 O.2     1  UNL1       -0.2748
      3 N          63.3357   88.5445   15.3977 N.am    1  UNL1       -0.2839
      4 H          62.4598   88.6688   15.8296 H       1  UNL1        0.1549
      5 C          63.9567   89.6694   14.6238 C.ar    1  UNL1        0.0503
      6 C          63.4893   89.9687   13.2301 C.ar    1  UNL1        0.0148
      7 C          64.1103   91.0935   12.4562 C.ar    1  UNL1        0.0058
      8 C          65.1987   91.9192   13.0758 C.ar    1  UNL1        0.0538
      9 C          65.6660   91.6199   14.4694 C.ar    1  UNL1        0.0058
     10 C          65.0450   90.4950   15.2434 C.ar    1  UNL1        0.0148
     11 C          65.8196   93.0440   12.3019 C.2     1  UNL1        0.2509
     12 O          66.8411   93.9285   12.9534 O.2     1  UNL1       -0.2698
     13 N          65.4192   93.2845   10.8765 N.am    1  UNL1       -0.2606
     14 H          64.7488   92.7040   10.4489 H       1  UNL1        0.1571
     15 C          66.0402   94.4094   10.1025 C.ar    1  UNL1        0.1658
     16 N          67.1457   94.2827    9.0967 N.ar    1  UNL1       -0.2224
     17 C          67.4535   95.6535    8.5711 C.ar    1  UNL1        0.1079
     18 C          66.5380   96.6273    9.2521 C.ar    1  UNL1        0.0588
     19 S          65.6646   95.8584   10.1985 S.2     1  UNL1       -0.0508
     20 C          63.4283   86.1053   16.2875 C.3     1  UNL1        0.0854
     21 C          61.7609   84.3708   15.3070 C.3     1  UNL1        0.0005
     22 C          63.1675   84.7885   15.6180 C.3     1  UNL1        0.0105
     23 C          64.3136   83.8895   15.2596 C.3     1  UNL1        0.0178
     24 C          64.8180   83.8440   13.8477 C.3     1  UNL1        0.0723
     25 N          64.2149   82.8830   12.8664 N.3     1  UNL1       -0.2685
     26 C          63.4208   81.7091   13.3575 C.3     1  UNL1        0.1046
     27 C          62.8178   80.7482   12.3762 C.3     1  UNL1        0.1595
     28 O          63.0089   80.9613   10.9038 O.3     1  UNL1       -0.3508
     29 C          63.8029   82.1352   10.4126 C.3     1  UNL1        0.1595
     30 C          64.4060   83.0961   11.3939 C.3     1  UNL1        0.1046
@<TRIPOS>BOND
     1    21    22    1
     2    22    23    1
     3    23    24    1
     4    24    25    1
     5    25    26    1
     6    26    27    1
     7    27    28    1
     8    28    29    1
     9    29    30    1
    10    22    20    1
    11    20     1    1
    12     1     2    2
    13     1     3   am
    14     3     5    1
    15     5     6   ar
    16     6     7   ar
    17     7     8   ar
    18     8    11    1
    19    11    12    2
    20    11    13   am
    21    13    15    1
    22    15    16   ar
    23    16    17   ar
    24    17    18   ar
    25    18    19   ar
    26     8     9   ar
    27     9    10   ar
    28    30    25    1
    29    10     5   ar
    30    19    15   ar
    31     3     4    1
    32    13    14    1
@<TRIPOS>MOLECULE
*****
 30 32 0 0 0
SMALL
GASTEIGER

@<TRIPOS>ATOM
      1 C          63.4929   83.8536   11.3765 C.2     1  UNL1        0.2261
      2 O          63.6213   83.7702    9.8844 O.2     1  UNL1       -0.2748
      3 N          62.7268   84.9817   12.0015 N.am    1  UNL1       -0.2839
      4 H          62.6425   85.0364   12.9808 H       1  UNL1        0.1549
      5 C          62.0892   86.0264   11.1343 C.ar    1  UNL1        0.0503
      6 C          62.2971   87.4809   11.4363 C.ar    1  UNL1        0.0148
      7 C          61.6595   88.5256   10.5691 C.ar    1  UNL1        0.0058
      8 C          60.8139   88.1158    9.3999 C.ar    1  UNL1        0.0538
      9 C          60.6059   86.6614    9.0979 C.ar    1  UNL1        0.0058
     10 C          61.2436   85.6166    9.9651 C.ar    1  UNL1        0.0148
     11 C          60.1763   89.1605    8.5328 C.2     1  UNL1        0.2509
     12 O          59.8138   90.4962    9.1111 O.2     1  UNL1       -0.2698
     13 N          59.9010   88.8694    7.0872 N.am    1  UNL1       -0.2606
     14 H          60.1389   87.9928    6.7076 H       1  UNL1        0.1571
     15 C          59.2634   89.9141    6.2200 C.ar    1  UNL1        0.1658
     16 N          57.7936   90.1937    6.1124 N.ar    1  UNL1       -0.2224
     17 C          57.6054   91.3150    5.1341 C.ar    1  UNL1        0.1079
     18 C          58.9590   91.7285    4.6370 C.ar    1  UNL1        0.0588
     19 S          59.9836   90.8627    5.3082 S.2     1  UNL1       -0.0508
     20 C          64.1305   82.8089   12.2437 C.3     1  UNL1        0.0854
     21 C          62.7035   80.7978   13.0617 C.3     1  UNL1        0.0005
     22 C          63.3300   82.1362   13.3191 C.3     1  UNL1        0.0105
     23 C          63.1560   82.8018   14.6521 C.3     1  UNL1        0.0178
     24 C          64.2486   83.6670   15.2067 C.3     1  UNL1        0.0723
     25 N          63.9819   85.1125   15.5057 N.3     1  UNL1       -0.2685
     26 C          63.1417   85.4910   16.6892 C.3     1  UNL1        0.1046
     27 C          62.8750   86.9365   16.9881 C.3     1  UNL1        0.1595
     28 O          63.4485   88.0035   16.1035 O.3     1  UNL1       -0.3508
     29 C          64.2887   87.6251   14.9200 C.3     1  UNL1        0.1595
     30 C          64.5554   86.1796   14.6210 C.3     1  UNL1        0.1046
@<TRIPOS>BOND
     1    21    22    1
     2    22    23    1
     3    23    24    1
     4    24    25    1
     5    25    26    1
     6    26    27    1
     7    27    28    1
     8    28    29    1
     9    29    30    1
    10    22    20    1
    11    20     1    1
    12     1     2    2
    13     1     3   am
    14     3     5    1
    15     5     6   ar
    16     6     7   ar
    17     7     8   ar
    18     8    11    1
    19    11    12    2
    20    11    13   am
    21    13    15    1
    22    15    16   ar
    23    16    17   ar
    24    17    18   ar
    25    18    19   ar
    26     8     9   ar
    27     9    10   ar
    28    30    25    1
    29    10     5   ar
    30    19    15   ar
    31     3     4    1
    32    13    14    1
@<TRIPOS>MOLECULE
*****
 30 32 0 0 0
SMALL
GASTEIGER

@<TRIPOS>ATOM
      1 C          65.6718   91.3556   14.9511 C.2     1  UNL1        0.2261
      2 O          66.7918   90.5605   14.3483 O.2     1  UNL1       -0.2748
      3 N          64.2705   90.8216   14.9183 N.am    1  UNL1       -0.2839
      4 H          63.5354   91.3435   15.3140 H       1  UNL1        0.1549
      5 C          63.9891   89.4925   14.2825 C.ar    1  UNL1        0.0503
      6 C          64.3217   88.2258   15.0139 C.ar    1  UNL1        0.0148
      7 C          64.0403   86.8967   14.3781 C.ar    1  UNL1        0.0058
      8 C          63.4262   86.8342   13.0110 C.ar    1  UNL1        0.0538
      9 C          63.0936   88.1009   12.2796 C.ar    1  UNL1        0.0058
     10 C          63.3750   89.4301   12.9154 C.ar    1  UNL1        0.0148
     11 C          63.1448   85.5051   12.3752 C.2     1  UNL1        0.2509
     12 O          62.2489   85.4225   11.1750 O.2     1  UNL1       -0.2698
     13 N          63.7593   84.2585   12.9397 N.am    1  UNL1       -0.2606
     14 H          64.3473   84.3128   13.7274 H       1  UNL1        0.1571
     15 C          63.4779   82.9294   12.3039 C.ar    1  UNL1        0.1658
     16 N          63.7011   82.5762   10.8633 N.ar    1  UNL1       -0.2224
     17 C          63.2850   81.1487   10.6661 C.ar    1  UNL1        0.1079
     18 C          62.8046   80.6196   11.9850 C.ar    1  UNL1        0.0588
     19 S          62.9238   81.7202   12.9971 S.2     1  UNL1       -0.0508
     20 C          65.9533   92.6847   15.5869 C.3     1  UNL1        0.0854
     21 C          68.3558   93.6624   15.7340 C.3     1  UNL1        0.0005
     22 C          67.0328   93.5672   15.0338 C.3     1  UNL1        0.0105
     23 C          66.7892   94.3544   13.7803 C.3     1  UNL1        0.0178
     24 C          66.1079   93.7092   12.6100 C.3     1  UNL1        0.0723
     25 N          66.8182   93.6045   11.2930 N.3     1  UNL1       -0.2685
     26 C          66.8797   94.7912   10.3776 C.3     1  UNL1        0.1046
     27 C          67.5899   94.6864    9.0606 C.3     1  UNL1        0.1595
     28 O          68.2387   93.3950    8.6590 O.3     1  UNL1       -0.3508
     29 C          68.1772   92.2083    9.5744 C.3     1  UNL1        0.1595
     30 C          67.4670   92.3131   10.8914 C.3     1  UNL1        0.1046
@<TRIPOS>BOND
     1    21    22    1
     2    22    23    1
     3    23    24    1
     4    24    25    1
     5    25    26    1
     6    26    27    1
     7    27    28    1
     8    28    29    1
     9    29    30    1
    10    22    20    1
    11    20     1    1
    12     1     2    2
    13     1     3   am
    14     3     5    1
    15     5     6   ar
    16     6     7   ar
    17     7     8   ar
    18     8    11    1
    19    11    12    2
    20    11    13   am
    21    13    15    1
    22    15    16   ar
    23    16    17   ar
    24    17    18   ar
    25    18    19   ar
    26     8     9   ar
    27     9    10   ar
    28    30    25    1
    29    10     5   ar
    30    19    15   ar
    31     3     4    1
    32    13    14    1
@<TRIPOS>MOLECULE
*****
 30 32 0 0 0
SMALL
GASTEIGER

@<TRIPOS>ATOM
      1 C          60.1196   87.8318   10.2667 C.2     1  UNL1        0.2261
      2 O          59.5671   88.1962   11.6127 O.2     1  UNL1       -0.2748
      3 N          61.5257   88.2096    9.9058 N.am    1  UNL1       -0.2839
      4 H          61.8883   87.9704    9.0223 H       1  UNL1        0.1549
      5 C          62.3793   88.9516   10.8910 C.ar    1  UNL1        0.0503
      6 C          62.9109   88.2464   12.1036 C.ar    1  UNL1        0.0148
      7 C          63.7645   88.9885   13.0888 C.ar    1  UNL1        0.0058
      8 C          64.0865   90.4358   12.8615 C.ar    1  UNL1        0.0538
      9 C          63.5549   91.1410   11.6491 C.ar    1  UNL1        0.0058
     10 C          62.7013   90.3989   10.6638 C.ar    1  UNL1        0.0148
     11 C          64.9401   91.1779   13.8468 C.2     1  UNL1        0.2509
     12 O          64.3548   91.6383   15.1489 O.2     1  UNL1       -0.2698
     13 N          66.3789   91.4596   13.5299 N.am    1  UNL1       -0.2606
     14 H          66.7631   91.1574   12.6752 H       1  UNL1        0.1571
     15 C          67.2325   92.2016   14.5151 C.ar    1  UNL1        0.1658
     16 N          68.1879   91.5856   15.4938 N.ar    1  UNL1       -0.2224
     17 C          68.8264   92.6933   16.2782 C.ar    1  UNL1        0.1079
     18 C          68.2657   93.9939   15.7842 C.ar    1  UNL1        0.0588
     19 S          67.2806   93.6901   14.6946 S.2     1  UNL1       -0.0508
     20 C          59.2660   87.0898    9.2815 C.3     1  UNL1        0.0854
     21 C          60.5822   85.7159    7.5122 C.3     1  UNL1        0.0005
     22 C          59.7388   86.9036    7.8702 C.3     1  UNL1        0.0105
     23 C          59.3683   87.9052    6.8168 C.3     1  UNL1        0.0178
     24 C          59.5946   89.3680    7.0600 C.3     1  UNL1        0.0723
     25 N          59.2643   90.3661    5.9900 N.3     1  UNL1       -0.2685
     26 C          60.3623   90.9850    5.1769 C.3     1  UNL1        0.1046
     27 C          60.0320   91.9831    4.1070 C.3     1  UNL1        0.1595
     28 O          58.6036   92.3623    3.8503 O.3     1  UNL1       -0.3508
     29 C          57.5056   91.7434    4.6635 C.3     1  UNL1        0.1595
     30 C          57.8359   90.7453    5.7333 C.3     1  UNL1        0.1046
@<TRIPOS>BOND
     1    21    22    1
     2    22    23    1
     3    23    24    1
     4    24    25    1
     5    25    26    1
     6    26    27    1
     7    27    28    1
     8    28    29    1
     9    29    30    1
    10    22    20    1
    11    20     1    1
    12     1     2    2
    13     1     3   am
    14     3     5    1
    15     5     6   ar
    16     6     7   ar
    17     7     8   ar
    18     8    11    1
    19    11    12    2
    20    11    13   am
    21    13    15    1
    22    15    16   ar
    23    16    17   ar
    24    17    18   ar
    25    18    19   ar
    26     8     9   ar
    27     9    10   ar
    28    30    25    1
    29    10     5   ar
    30    19    15   ar
    31     3     4    1
    32    13    14    1
@<TRIPOS>MOLECULE
*****
 30 32 0 0 0
SMALL
GASTEIGER

@<TRIPOS>ATOM
      1 C          64.9759   90.9734   15.2270 C.2     1  UNL1        0.2261
      2 O          65.8490   90.3136   14.2012 O.2     1  UNL1       -0.2748
      3 N          63.9656   90.1637   15.9846 N.am    1  UNL1       -0.2839
      4 H          63.3925   90.5968   16.6578 H       1  UNL1        0.1549
      5 C          63.8284   88.6943   15.7163 C.ar    1  UNL1        0.0503
      6 C          63.2479   87.7916   16.7643 C.ar    1  UNL1        0.0148
      7 C          63.1108   86.3222   16.4960 C.ar    1  UNL1        0.0058
      8 C          63.5541   85.7555   15.1798 C.ar    1  UNL1        0.0538
      9 C          64.1345   86.6581   14.1319 C.ar    1  UNL1        0.0058
     10 C          64.2717   88.1276   14.4001 C.ar    1  UNL1        0.0148
     11 C          63.4169   84.2861   14.9116 C.2     1  UNL1        0.2509
     12 O          64.1331   83.2950   15.7804 O.2     1  UNL1       -0.2698
     13 N          62.5635   83.8077   13.7745 N.am    1  UNL1       -0.2606
     14 H          62.0935   84.4581   13.2042 H       1  UNL1        0.1571
     15 C          62.4264   82.3383   13.5062 C.ar    1  UNL1        0.1658
     16 N          61.5901   81.3727   14.2926 N.ar    1  UNL1       -0.2224
     17 C          61.7483   80.0141   13.6769 C.ar    1  UNL1        0.1079
     18 C          62.6823   80.1400   12.5099 C.ar    1  UNL1        0.0588
     19 S          63.1014   81.5764   12.4045 S.2     1  UNL1       -0.0508
     20 C          65.1130   92.4428   15.4953 C.3     1  UNL1        0.0854
     21 C          67.5630   93.0581   16.1024 C.3     1  UNL1        0.0005
     22 C          66.3948   93.1488   15.1660 C.3     1  UNL1        0.0105
     23 C          66.5084   93.9457   13.9002 C.3     1  UNL1        0.0178
     24 C          66.1279   93.3270   12.5878 C.3     1  UNL1        0.0723
     25 N          66.6806   93.8821   11.3086 N.3     1  UNL1       -0.2685
     26 C          66.5743   95.3503   11.0203 C.3     1  UNL1        0.1046
     27 C          67.1270   95.9054    9.7412 C.3     1  UNL1        0.1595
     28 O          67.7861   94.9923    8.7502 O.3     1  UNL1       -0.3508
     29 C          67.8924   93.5242    9.0384 C.3     1  UNL1        0.1595
     30 C          67.3397   92.9691   10.3176 C.3     1  UNL1        0.1046
@<TRIPOS>BOND
     1    21    22    1
     2    22    23    1
     3    23    24    1
     4    24    25    1
     5    25    26    1
     6    26    27    1
     7    27    28    1
     8    28    29    1
     9    29    30    1
    10    22    20    1
    11    20     1    1
    12     1     2    2
    13     1     3   am
    14     3     5    1
    15     5     6   ar
    16     6     7   ar
    17     7     8   ar
    18     8    11    1
    19    11    12    2
    20    11    13   am
    21    13    15    1
    22    15    16   ar
    23    16    17   ar
    24    17    18   ar
    25    18    19   ar
    26     8     9   ar
    27     9    10   ar
    28    30    25    1
    29    10     5   ar
    30    19    15   ar
    31     3     4    1
    32    13    14    1
@<TRIPOS>MOLECULE
*****
 30 32 0 0 0
SMALL
GASTEIGER

@<TRIPOS>ATOM
      1 C          64.1133   87.0196   15.3560 C.2     1  UNL1        0.2261
      2 O          65.4120   86.8460   14.6258 O.2     1  UNL1       -0.2748
      3 N          63.4137   88.3464   15.3369 N.am    1  UNL1       -0.2839
      4 H          62.5613   88.4603   15.8161 H       1  UNL1        0.1549
      5 C          64.0128   89.4994   14.5876 C.ar    1  UNL1        0.0503
      6 C          63.4995   89.8557   13.2239 C.ar    1  UNL1        0.0148
      7 C          64.0986   91.0088   12.4746 C.ar    1  UNL1        0.0058
      8 C          65.2111   91.8057   13.0890 C.ar    1  UNL1        0.0538
      9 C          65.7244   91.4494   14.4527 C.ar    1  UNL1        0.0058
     10 C          65.1253   90.2963   15.2020 C.ar    1  UNL1        0.0148
     11 C          65.8102   92.9587   12.3398 C.2     1  UNL1        0.2509
     12 O          66.7638   93.8879   13.0307 O.2     1  UNL1       -0.2698
     13 N          65.4557   93.1827   10.8995 N.am    1  UNL1       -0.2606
     14 H          64.8298   92.5729   10.4460 H       1  UNL1        0.1571
     15 C          66.0548   94.3358   10.1503 C.ar    1  UNL1        0.1658
     16 N          65.5394   95.7444   10.1408 N.ar    1  UNL1       -0.2224
     17 C          66.4406   96.5619    9.2636 C.ar    1  UNL1        0.1079
     18 C          67.5130   95.6585    8.7309 C.ar    1  UNL1        0.0588
     19 S          67.2746   94.2827    9.2789 S.2     1  UNL1       -0.0508
     20 C          63.5142   85.8666   16.1052 C.3     1  UNL1        0.0854
     21 C          64.7277   83.6918   15.3651 C.3     1  UNL1        0.0005
     22 C          63.4722   84.5049   15.4776 C.3     1  UNL1        0.0105
     23 C          62.1746   83.9562   14.9623 C.3     1  UNL1        0.0178
     24 C          62.1776   82.8756   13.9220 C.3     1  UNL1        0.0723
     25 N          62.7067   83.1594   12.5474 N.3     1  UNL1       -0.2685
     26 C          63.5013   82.1160   11.8194 C.3     1  UNL1        0.1046
     27 C          64.0303   82.3997   10.4448 C.3     1  UNL1        0.1595
     28 O          63.7649   83.7269    9.7982 O.3     1  UNL1       -0.3508
     29 C          62.9704   84.7703   10.5262 C.3     1  UNL1        0.1595
     30 C          62.4413   84.4866   11.9008 C.3     1  UNL1        0.1046
@<TRIPOS>BOND
     1    21    22    1
     2    22    23    1
     3    23    24    1
     4    24    25    1
     5    25    26    1
     6    26    27    1
     7    27    28    1
     8    28    29    1
     9    29    30    1
    10    22    20    1
    11    20     1    1
    12     1     2    2
    13     1     3   am
    14     3     5    1
    15     5     6   ar
    16     6     7   ar
    17     7     8   ar
    18     8    11    1
    19    11    12    2
    20    11    13   am
    21    13    15    1
    22    15    16   ar
    23    16    17   ar
    24    17    18   ar
    25    18    19   ar
    26     8     9   ar
    27     9    10   ar
    28    30    25    1
    29    10     5   ar
    30    19    15   ar
    31     3     4    1
    32    13    14    1
@<TRIPOS>MOLECULE
*****
 30 32 0 0 0
SMALL
GASTEIGER

@<TRIPOS>ATOM
      1 C          59.3669   89.4734    6.7944 C.2     1  UNL1        0.2261
      2 O          59.3801   88.0287    6.3910 O.2     1  UNL1       -0.2748
      3 N          59.9684   89.8921    8.1032 N.am    1  UNL1       -0.2839
      4 H          59.9598   90.8403    8.3680 H       1  UNL1        0.1549
      5 C          60.5831   88.8662    9.0085 C.ar    1  UNL1        0.0503
      6 C          60.0828   87.4521    8.9884 C.ar    1  UNL1        0.0148
      7 C          60.6975   86.4262    9.8937 C.ar    1  UNL1        0.0058
      8 C          61.8124   86.8142   10.8191 C.ar    1  UNL1        0.0538
      9 C          62.3127   88.2282   10.8392 C.ar    1  UNL1        0.0058
     10 C          61.6980   89.2542    9.9339 C.ar    1  UNL1        0.0148
     11 C          62.4271   85.7883   11.7244 C.2     1  UNL1        0.2509
     12 O          63.1662   86.2212   12.9558 O.2     1  UNL1       -0.2698
     13 N          62.3027   84.3294   11.3984 N.am    1  UNL1       -0.2606
     14 H          61.8176   84.0453   10.5902 H       1  UNL1        0.1571
     15 C          62.9173   83.3035   12.3037 C.ar    1  UNL1        0.1658
     16 N          62.4812   82.9887   13.7040 N.ar    1  UNL1       -0.2224
     17 C          63.3704   81.9029   14.2334 C.ar    1  UNL1        0.1079
     18 C          64.3561   81.5466   13.1603 C.ar    1  UNL1        0.0588
     19 S          64.0761   82.4123   11.9677 S.2     1  UNL1       -0.0508
     20 C          58.7523   90.4993    5.8891 C.3     1  UNL1        0.0854
     21 C          61.0779   90.9530    4.8234 C.3     1  UNL1        0.0005
     22 C          59.6045   91.2258    4.8912 C.3     1  UNL1        0.0105
     23 C          58.9832   92.2253    3.9610 C.3     1  UNL1        0.0178
     24 C          59.8242   93.3089    3.3541 C.3     1  UNL1        0.0723
     25 N          60.3955   93.1332    1.9783 N.3     1  UNL1       -0.2685
     26 C          61.8615   93.3458    1.7421 C.3     1  UNL1        0.1046
     27 C          62.4327   93.1701    0.3663 C.3     1  UNL1        0.1595
     28 O          61.5380   92.7817   -0.7733 O.3     1  UNL1       -0.3508
     29 C          60.0721   92.5691   -0.5371 C.3     1  UNL1        0.1595
     30 C          59.5009   92.7448    0.8387 C.3     1  UNL1        0.1046
@<TRIPOS>BOND
     1    21    22    1
     2    22    23    1
     3    23    24    1
     4    24    25    1
     5    25    26    1
     6    26    27    1
     7    27    28    1
     8    28    29    1
     9    29    30    1
    10    22    20    1
    11    20     1    1
    12     1     2    2
    13     1     3   am
    14     3     5    1
    15     5     6   ar
    16     6     7   ar
    17     7     8   ar
    18     8    11    1
    19    11    12    2
    20    11    13   am
    21    13    15    1
    22    15    16   ar
    23    16    17   ar
    24    17    18   ar
    25    18    19   ar
    26     8     9   ar
    27     9    10   ar
    28    30    25    1
    29    10     5   ar
    30    19    15   ar
    31     3     4    1
    32    13    14    1
