@<TRIPOS>MOLECULE
*****
 33 39 0 0 0
SMALL
GASTEIGER

@<TRIPOS>ATOM
      1 C          61.4567   92.7078    2.0297 C.3     1  UNL1        0.0227
      2 C          60.9970   92.4120    0.6329 C.3     1  UNL1        0.0095
      3 C          61.6854   93.0541   -0.5349 C.3     1  UNL1        0.0624
      4 C          62.8335   93.9919   -0.3059 C.3     1  UNL1        0.2499
      5 C          63.2932   94.2876    1.0909 C.3     1  UNL1        0.0624
      6 C          62.6048   93.6456    2.2587 C.3     1  UNL1        0.0095
      7 O          62.3738   93.6961   -1.7029 O.3     1  UNL1       -0.1923
      8 O          63.0622   94.3382   -2.8707 O.3     1  UNL1       -0.1923
      9 C          64.2103   95.2760   -2.6417 C.3     1  UNL1        0.2495
     10 O          64.6700   95.5717   -1.2449 O.3     1  UNL1       -0.1923
     11 O          63.9816   94.9297   -0.0769 O.3     1  UNL1       -0.1923
     12 C          63.7506   94.9803   -4.0386 C.3     1  UNL1        0.0572
     13 C          64.4390   95.6223   -5.2064 C.3     1  UNL1        0.0050
     14 C          65.5870   96.5601   -4.9774 C.3     1  UNL1        0.0003
     15 C          65.1273   96.2644   -6.3742 C.3     1  UNL1        0.0000
     16 C          63.9793   95.3266   -6.6032 C.3     1  UNL1        0.0003
     17 C          63.2909   94.6845   -5.4354 C.3     1  UNL1        0.0050
     18 C          65.4904   96.4137   -3.8934 C.3     1  UNL1        0.0050
     19 C          65.3583   96.2138   -2.4127 C.3     1  UNL1        0.0572
     20 C          66.0467   96.8559   -3.5806 C.3     1  UNL1        0.0050
     21 C          58.6334   91.7141    4.6359 C.ar    1  UNL1       -0.0032
     22 C          59.3218   92.3562    3.4680 C.ar    1  UNL1       -0.0046
     23 C          60.7683   92.0657    3.1976 C.ar    1  UNL1       -0.0225
     24 C          61.5266   91.1332    4.0951 C.ar    1  UNL1       -0.0046
     25 C          60.8382   90.4911    5.2630 C.ar    1  UNL1       -0.0032
     26 C          59.3916   90.7816    5.5334 C.ar    1  UNL1       -0.0062
     27 C          58.7033   90.1395    6.7013 C.3     1  UNL1        0.0993
     28 N          59.4014   89.0700    7.4879 N.3     1  UNL1       -0.2646
     29 C          59.2601   87.6314    7.0875 C.3     1  UNL1        0.1049
     30 C          59.9582   86.5619    7.8742 C.3     1  UNL1        0.1595
     31 O          60.7975   86.9310    9.0613 O.3     1  UNL1       -0.3508
     32 C          60.9388   88.3697    9.4617 C.3     1  UNL1        0.1595
     33 C          60.2408   89.4392    8.6750 C.3     1  UNL1        0.1049
@<TRIPOS>BOND
     1    21    22   ar
     2    22    23   ar
     3    23     1    1
     4     1     2    1
     5     2     3    1
     6     3     4    1
     7     4     5    1
     8     5     6    1
     9     4     7    1
    10     7     8    1
    11     8     9    1
    12     9    10    1
    13    10    11    1
    14     9    12    1
    15    12    13    1
    16    13    14    1
    17    14    15    1
    18    15    16    1
    19    16    17    1
    20    16    18    1
    21    18    19    1
    22    19    20    1
    23    23    24   ar
    24    24    25   ar
    25    25    26   ar
    26    26    27    1
    27    27    28    1
    28    28    29    1
    29    29    30    1
    30    30    31    1
    31    31    32    1
    32    32    33    1
    33    26    21   ar
    34    33    28    1
    35     6     1    1
    36    19     9    1
    37    11     4    1
    38    17    12    1
    39    20    14    1
@<TRIPOS>MOLECULE
*****
 33 39 0 0 0
SMALL
GASTEIGER

@<TRIPOS>ATOM
      1 C          60.5351   88.7831    7.8845 C.3     1  UNL1        0.0227
      2 C          60.4160   87.2937    7.7517 C.3     1  UNL1        0.0095
      3 C          60.9537   86.3994    8.8291 C.3     1  UNL1        0.0624
      4 C          61.6106   86.9943   10.0393 C.3     1  UNL1        0.2499
      5 C          61.7296   88.4836   10.1722 C.3     1  UNL1        0.0624
      6 C          61.1919   89.3780    9.0948 C.3     1  UNL1        0.0095
      7 O          61.4915   85.5049    9.9066 O.3     1  UNL1       -0.1923
      8 O          62.0293   84.6105   10.9840 O.3     1  UNL1       -0.1923
      9 C          62.6861   85.2054   12.1942 C.3     1  UNL1        0.2495
     10 O          62.8052   86.6947   12.3270 O.3     1  UNL1       -0.1923
     11 O          62.2674   87.5892   11.2496 O.3     1  UNL1       -0.1923
     12 C          62.5670   83.7160   12.0614 C.3     1  UNL1        0.0572
     13 C          63.1048   82.8216   13.1388 C.3     1  UNL1        0.0050
     14 C          63.7616   83.4166   14.3490 C.3     1  UNL1        0.0003
     15 C          63.6425   81.9272   14.2162 C.3     1  UNL1        0.0000
     16 C          62.9857   81.3323   13.0060 C.3     1  UNL1        0.0003
     17 C          62.4480   82.2267   11.9286 C.3     1  UNL1        0.0050
     18 C          63.5846   84.4241   13.9498 C.3     1  UNL1        0.0050
     19 C          63.3429   85.8004   13.4044 C.3     1  UNL1        0.0572
     20 C          63.8807   84.9059   14.4818 C.3     1  UNL1        0.0050
     21 C          57.9791   90.7658    5.5853 C.ar    1  UNL1       -0.0032
     22 C          58.5169   89.8713    6.6627 C.ar    1  UNL1       -0.0046
     23 C          59.9973   89.6775    6.8071 C.ar    1  UNL1       -0.0225
     24 C          60.9400   90.3782    5.8741 C.ar    1  UNL1       -0.0046
     25 C          60.4023   91.2726    4.7967 C.ar    1  UNL1       -0.0032
     26 C          58.9218   91.4665    4.6523 C.ar    1  UNL1       -0.0062
     27 C          58.3841   92.3609    3.5749 C.3     1  UNL1        0.0993
     28 N          59.3061   92.9112    2.5275 N.3     1  UNL1       -0.2646
     29 C          59.3225   92.3113    1.1527 C.3     1  UNL1        0.1049
     30 C          60.2446   92.8617    0.1053 C.3     1  UNL1        0.1595
     31 O          61.1501   94.0117    0.4326 O.3     1  UNL1       -0.3508
     32 C          61.1337   94.6116    1.8074 C.3     1  UNL1        0.1595
     33 C          60.2118   94.0613    2.8548 C.3     1  UNL1        0.1049
@<TRIPOS>BOND
     1    21    22   ar
     2    22    23   ar
     3    23     1    1
     4     1     2    1
     5     2     3    1
     6     3     4    1
     7     4     5    1
     8     5     6    1
     9     4     7    1
    10     7     8    1
    11     8     9    1
    12     9    10    1
    13    10    11    1
    14     9    12    1
    15    12    13    1
    16    13    14    1
    17    14    15    1
    18    15    16    1
    19    16    17    1
    20    16    18    1
    21    18    19    1
    22    19    20    1
    23    23    24   ar
    24    24    25   ar
    25    25    26   ar
    26    26    27    1
    27    27    28    1
    28    28    29    1
    29    29    30    1
    30    30    31    1
    31    31    32    1
    32    32    33    1
    33    26    21   ar
    34    33    28    1
    35     6     1    1
    36    19     9    1
    37    11     4    1
    38    17    12    1
    39    20    14    1
@<TRIPOS>MOLECULE
*****
 33 39 0 0 0
SMALL
GASTEIGER

@<TRIPOS>ATOM
      1 C          60.4026   92.6349    2.2667 C.3     1  UNL1        0.0227
      2 C          61.8489   92.6446    1.8693 C.3     1  UNL1        0.0095
      3 C          62.2772   93.3465    0.6148 C.3     1  UNL1        0.0624
      4 C          61.2592   94.0386   -0.2423 C.3     1  UNL1        0.2499
      5 C          59.8129   94.0289    0.1551 C.3     1  UNL1        0.0624
      6 C          59.3845   93.3270    1.4096 C.3     1  UNL1        0.0095
      7 O          62.7056   94.0484   -0.6398 O.3     1  UNL1       -0.1923
      8 O          63.1339   94.7502   -1.8943 O.3     1  UNL1       -0.1923
      9 C          62.1159   95.4423   -2.7515 C.3     1  UNL1        0.2495
     10 O          60.6696   95.4326   -2.3540 O.3     1  UNL1       -0.1923
     11 O          60.2412   94.7307   -1.0994 O.3     1  UNL1       -0.1923
     12 C          63.5623   95.4521   -3.1489 C.3     1  UNL1        0.0572
     13 C          63.9906   96.1539   -4.4035 C.3     1  UNL1        0.0050
     14 C          62.9726   96.8460   -5.2606 C.3     1  UNL1        0.0003
     15 C          64.4189   96.8558   -5.6580 C.3     1  UNL1        0.0000
     16 C          65.4369   96.1637   -4.8009 C.3     1  UNL1        0.0003
     17 C          65.0086   95.4618   -3.5464 C.3     1  UNL1        0.0050
     18 C          62.1802   96.5453   -4.5624 C.3     1  UNL1        0.0050
     19 C          61.0979   96.1344   -3.6086 C.3     1  UNL1        0.0572
     20 C          61.5263   96.8363   -4.8632 C.3     1  UNL1        0.0050
     21 C          58.1104   91.2782    5.2089 C.ar    1  UNL1       -0.0032
     22 C          58.5388   91.9801    3.9543 C.ar    1  UNL1       -0.0046
     23 C          59.9742   91.9330    3.5213 C.ar    1  UNL1       -0.0225
     24 C          60.9812   91.1842    4.3430 C.ar    1  UNL1       -0.0046
     25 C          60.5529   90.4823    5.5975 C.ar    1  UNL1       -0.0032
     26 C          59.1175   90.5293    6.0305 C.ar    1  UNL1       -0.0062
     27 C          58.6891   89.8275    7.2850 C.3     1  UNL1        0.0993
     28 N          59.5160   88.7034    7.8351 N.3     1  UNL1       -0.2646
     29 C          59.3712   87.3206    7.2721 C.3     1  UNL1        0.1049
     30 C          60.1981   86.1964    7.8222 C.3     1  UNL1        0.1595
     31 O          61.1697   86.4551    8.9353 O.3     1  UNL1       -0.3508
     32 C          61.3145   87.8379    9.4983 C.3     1  UNL1        0.1595
     33 C          60.4877   88.9620    8.9482 C.3     1  UNL1        0.1049
@<TRIPOS>BOND
     1    21    22   ar
     2    22    23   ar
     3    23     1    1
     4     1     2    1
     5     2     3    1
     6     3     4    1
     7     4     5    1
     8     5     6    1
     9     4     7    1
    10     7     8    1
    11     8     9    1
    12     9    10    1
    13    10    11    1
    14     9    12    1
    15    12    13    1
    16    13    14    1
    17    14    15    1
    18    15    16    1
    19    16    17    1
    20    16    18    1
    21    18    19    1
    22    19    20    1
    23    23    24   ar
    24    24    25   ar
    25    25    26   ar
    26    26    27    1
    27    27    28    1
    28    28    29    1
    29    29    30    1
    30    30    31    1
    31    31    32    1
    32    32    33    1
    33    26    21   ar
    34    33    28    1
    35     6     1    1
    36    19     9    1
    37    11     4    1
    38    17    12    1
    39    20    14    1
@<TRIPOS>MOLECULE
*****
 33 39 0 0 0
SMALL
GASTEIGER

@<TRIPOS>ATOM
      1 C          60.5019   88.8872    7.7184 C.3     1  UNL1        0.0227
      2 C          61.2308   89.4639    8.8957 C.3     1  UNL1        0.0095
      3 C          61.7474   88.5590    9.9746 C.3     1  UNL1        0.0624
      4 C          61.5351   87.0774    9.8763 C.3     1  UNL1        0.2499
      5 C          60.8062   86.5006    8.6991 C.3     1  UNL1        0.0624
      6 C          60.2896   87.4055    7.6201 C.3     1  UNL1        0.0095
      7 O          62.2641   87.6541   11.0537 O.3     1  UNL1       -0.1923
      8 O          62.7807   86.7492   12.1326 O.3     1  UNL1       -0.1923
      9 C          62.5684   85.2676   12.0343 C.3     1  UNL1        0.2495
     10 O          61.8395   84.6908   10.8571 O.3     1  UNL1       -0.1923
     11 O          61.3228   85.5957    9.7780 O.3     1  UNL1       -0.1923
     12 C          63.2974   85.8443   13.2117 C.3     1  UNL1        0.0572
     13 C          63.8140   84.9394   14.2906 C.3     1  UNL1        0.0050
     14 C          63.6017   83.4577   14.1923 C.3     1  UNL1        0.0003
     15 C          64.3306   84.0345   15.3696 C.3     1  UNL1        0.0000
     16 C          64.5429   85.5161   15.4679 C.3     1  UNL1        0.0003
     17 C          64.0263   86.4210   14.3889 C.3     1  UNL1        0.0050
     18 C          63.0753   83.5964   13.2387 C.3     1  UNL1        0.0050
     19 C          62.3561   83.7859   11.9360 C.3     1  UNL1        0.0572
     20 C          62.8728   82.8810   13.0151 C.3     1  UNL1        0.0050
     21 C          57.9918   90.9052    5.3994 C.ar    1  UNL1       -0.0032
     22 C          58.5085   90.0003    6.4785 C.ar    1  UNL1       -0.0046
     23 C          59.9852   89.7921    6.6394 C.ar    1  UNL1       -0.0225
     24 C          60.9453   90.4887    5.7212 C.ar    1  UNL1       -0.0046
     25 C          60.4287   91.3936    4.6422 C.ar    1  UNL1       -0.0032
     26 C          58.9519   91.6019    4.4813 C.ar    1  UNL1       -0.0062
     27 C          58.4353   92.5067    3.4023 C.3     1  UNL1        0.0993
     28 N          59.3727   93.0451    2.3625 N.3     1  UNL1       -0.2646
     29 C          60.2456   94.2236    2.6776 C.3     1  UNL1        0.1049
     30 C          61.1831   94.7619    1.6377 C.3     1  UNL1        0.1595
     31 O          61.2476   94.1219    0.2826 O.3     1  UNL1       -0.3508
     32 C          60.3747   92.9434   -0.0325 C.3     1  UNL1        0.1595
     33 C          59.4373   92.4050    1.0074 C.3     1  UNL1        0.1049
@<TRIPOS>BOND
     1    21    22   ar
     2    22    23   ar
     3    23     1    1
     4     1     2    1
     5     2     3    1
     6     3     4    1
     7     4     5    1
     8     5     6    1
     9     4     7    1
    10     7     8    1
    11     8     9    1
    12     9    10    1
    13    10    11    1
    14     9    12    1
    15    12    13    1
    16    13    14    1
    17    14    15    1
    18    15    16    1
    19    16    17    1
    20    16    18    1
    21    18    19    1
    22    19    20    1
    23    23    24   ar
    24    24    25   ar
    25    25    26   ar
    26    26    27    1
    27    27    28    1
    28    28    29    1
    29    29    30    1
    30    30    31    1
    31    31    32    1
    32    32    33    1
    33    26    21   ar
    34    33    28    1
    35     6     1    1
    36    19     9    1
    37    11     4    1
    38    17    12    1
    39    20    14    1
@<TRIPOS>MOLECULE
*****
 33 39 0 0 0
SMALL
GASTEIGER

@<TRIPOS>ATOM
      1 C          60.1485   90.7846    5.3956 C.3     1  UNL1        0.0227
      2 C          61.4578   91.0447    4.7115 C.3     1  UNL1        0.0095
      3 C          61.5117   91.9442    3.5124 C.3     1  UNL1        0.0624
      4 C          60.2564   92.5836    2.9974 C.3     1  UNL1        0.2499
      5 C          58.9471   92.3236    3.6815 C.3     1  UNL1        0.0624
      6 C          58.8932   91.4240    4.8806 C.3     1  UNL1        0.0095
      7 O          61.5657   92.8437    2.3132 O.3     1  UNL1       -0.1923
      8 O          61.6197   93.7433    1.1141 O.3     1  UNL1       -0.1923
      9 C          60.3643   94.3827    0.5991 C.3     1  UNL1        0.2495
     10 O          59.0550   94.1227    1.2833 O.3     1  UNL1       -0.1923
     11 O          59.0010   93.2231    2.4824 O.3     1  UNL1       -0.1923
     12 C          61.6737   94.6428   -0.0851 C.3     1  UNL1        0.0572
     13 C          61.7276   95.5424   -1.2842 C.3     1  UNL1        0.0050
     14 C          60.4723   96.1818   -1.7991 C.3     1  UNL1        0.0003
     15 C          61.7815   96.4419   -2.4833 C.3     1  UNL1        0.0000
     16 C          63.0369   95.8024   -1.9683 C.3     1  UNL1        0.0003
     17 C          62.9830   94.9029   -0.7692 C.3     1  UNL1        0.0050
     18 C          59.8961   95.6917   -1.0031 C.3     1  UNL1        0.0050
     19 C          59.1090   95.0222    0.0842 C.3     1  UNL1        0.0572
     20 C          59.1630   95.9217   -1.1150 C.3     1  UNL1        0.0050
     21 C          59.3127   87.6761    7.7172 C.ar    1  UNL1       -0.0032
     22 C          59.3667   88.5757    6.5180 C.ar    1  UNL1       -0.0046
     23 C          60.0945   89.8850    6.5948 C.ar    1  UNL1       -0.0225
     24 C          60.7684   90.2948    7.8707 C.ar    1  UNL1       -0.0046
     25 C          60.7144   89.3954    9.0699 C.ar    1  UNL1       -0.0032
     26 C          59.9866   88.0860    8.9931 C.ar    1  UNL1       -0.0062
     27 C          59.9326   87.1865   10.1922 C.3     1  UNL1        0.0993
     28 N          61.0820   86.2719   10.4960 N.3     1  UNL1       -0.2646
     29 C          61.4759   86.0097   11.9195 C.3     1  UNL1        0.1049
     30 C          62.6254   85.0951   12.2232 C.3     1  UNL1        0.1595
     31 O          63.3810   84.4428   11.1036 O.3     1  UNL1       -0.3508
     32 C          62.9871   84.7050    9.6802 C.3     1  UNL1        0.1595
     33 C          61.8377   85.6196    9.3764 C.3     1  UNL1        0.1049
@<TRIPOS>BOND
     1    21    22   ar
     2    22    23   ar
     3    23     1    1
     4     1     2    1
     5     2     3    1
     6     3     4    1
     7     4     5    1
     8     5     6    1
     9     4     7    1
    10     7     8    1
    11     8     9    1
    12     9    10    1
    13    10    11    1
    14     9    12    1
    15    12    13    1
    16    13    14    1
    17    14    15    1
    18    15    16    1
    19    16    17    1
    20    16    18    1
    21    18    19    1
    22    19    20    1
    23    23    24   ar
    24    24    25   ar
    25    25    26   ar
    26    26    27    1
    27    27    28    1
    28    28    29    1
    29    29    30    1
    30    30    31    1
    31    31    32    1
    32    32    33    1
    33    26    21   ar
    34    33    28    1
    35     6     1    1
    36    19     9    1
    37    11     4    1
    38    17    12    1
    39    20    14    1
@<TRIPOS>MOLECULE
*****
 33 39 0 0 0
SMALL
GASTEIGER

@<TRIPOS>ATOM
      1 C          60.1704   90.8805    5.2606 C.3     1  UNL1        0.0227
      2 C          58.9425   91.5473    4.7153 C.3     1  UNL1        0.0095
      3 C          59.0365   92.4029    3.4868 C.3     1  UNL1        0.0624
      4 C          60.3586   92.5916    2.8037 C.3     1  UNL1        0.2499
      5 C          61.5865   91.9248    3.3490 C.3     1  UNL1        0.0624
      6 C          61.4924   91.0692    4.5775 C.3     1  UNL1        0.0095
      7 O          59.1306   93.2585    2.2583 O.3     1  UNL1       -0.1923
      8 O          59.2246   94.1140    1.0298 O.3     1  UNL1       -0.1923
      9 C          60.5467   94.3027    0.3467 C.3     1  UNL1        0.2495
     10 O          61.7746   93.6359    0.8920 O.3     1  UNL1       -0.1923
     11 O          61.6806   92.7803    2.1206 O.3     1  UNL1       -0.1923
     12 C          59.3187   94.9696   -0.1987 C.3     1  UNL1        0.0572
     13 C          59.4127   95.8251   -1.4272 C.3     1  UNL1        0.0050
     14 C          60.7348   96.0138   -2.1103 C.3     1  UNL1        0.0003
     15 C          59.5068   96.6806   -2.6556 C.3     1  UNL1        0.0000
     16 C          58.1848   96.4919   -1.9725 C.3     1  UNL1        0.0003
     17 C          58.0907   95.6364   -0.7441 C.3     1  UNL1        0.0050
     18 C          61.2140   95.3704   -1.3606 C.3     1  UNL1        0.0050
     19 C          61.8687   94.4914   -0.3364 C.3     1  UNL1        0.0572
     20 C          61.9627   95.3470   -1.5650 C.3     1  UNL1        0.0050
     21 C          59.2536   87.8594    7.6654 C.ar    1  UNL1       -0.0032
     22 C          59.3476   88.7150    6.4368 C.ar    1  UNL1       -0.0046
     23 C          60.0764   90.0249    6.4892 C.ar    1  UNL1       -0.0225
     24 C          60.7112   90.4794    7.7700 C.ar    1  UNL1       -0.0046
     25 C          60.6172   89.6239    8.9985 C.ar    1  UNL1       -0.0032
     26 C          59.8884   88.3138    8.9462 C.ar    1  UNL1       -0.0062
     27 C          59.7944   87.4583   10.1747 C.3     1  UNL1        0.0993
     28 N          61.0145   87.2107   11.0112 N.3     1  UNL1       -0.2646
     29 C          61.8024   88.3680   11.5496 C.3     1  UNL1        0.1049
     30 C          63.0226   88.1203   12.3861 C.3     1  UNL1        0.1595
     31 O          63.4549   86.7152   12.6844 O.3     1  UNL1       -0.3508
     32 C          62.6670   85.5579   12.1460 C.3     1  UNL1        0.1595
     33 C          61.4469   85.8056   11.3095 C.3     1  UNL1        0.1049
@<TRIPOS>BOND
     1    21    22   ar
     2    22    23   ar
     3    23     1    1
     4     1     2    1
     5     2     3    1
     6     3     4    1
     7     4     5    1
     8     5     6    1
     9     4     7    1
    10     7     8    1
    11     8     9    1
    12     9    10    1
    13    10    11    1
    14     9    12    1
    15    12    13    1
    16    13    14    1
    17    14    15    1
    18    15    16    1
    19    16    17    1
    20    16    18    1
    21    18    19    1
    22    19    20    1
    23    23    24   ar
    24    24    25   ar
    25    25    26   ar
    26    26    27    1
    27    27    28    1
    28    28    29    1
    29    29    30    1
    30    30    31    1
    31    31    32    1
    32    32    33    1
    33    26    21   ar
    34    33    28    1
    35     6     1    1
    36    19     9    1
    37    11     4    1
    38    17    12    1
    39    20    14    1
@<TRIPOS>MOLECULE
*****
 33 39 0 0 0
SMALL
GASTEIGER

@<TRIPOS>ATOM
      1 C          60.2567   90.9587    5.1277 C.3     1  UNL1        0.0227
      2 C          61.5770   91.1099    4.4321 C.3     1  UNL1        0.0095
      3 C          61.6910   91.9895    3.2224 C.3     1  UNL1        0.0624
      4 C          60.4846   92.7179    2.7084 C.3     1  UNL1        0.2499
      5 C          59.1643   92.5667    3.4040 C.3     1  UNL1        0.0624
      6 C          59.0504   91.6871    4.6136 C.3     1  UNL1        0.0095
      7 O          61.8050   92.8691    2.0127 O.3     1  UNL1       -0.1923
      8 O          61.9190   93.7487    0.8030 O.3     1  UNL1       -0.1923
      9 C          60.7127   94.4770    0.2890 C.3     1  UNL1        0.2495
     10 O          59.3924   94.3258    0.9846 O.3     1  UNL1       -0.1923
     11 O          59.2783   93.4462    2.1943 O.3     1  UNL1       -0.1923
     12 C          62.0330   94.6283   -0.4067 C.3     1  UNL1        0.0572
     13 C          62.1470   95.5078   -1.6163 C.3     1  UNL1        0.0050
     14 C          60.9407   96.2362   -2.1304 C.3     1  UNL1        0.0003
     15 C          62.2610   96.3874   -2.8260 C.3     1  UNL1        0.0000
     16 C          63.4673   95.6590   -2.3119 C.3     1  UNL1        0.0003
     17 C          63.3533   94.7795   -1.1023 C.3     1  UNL1        0.0050
     18 C          60.3344   95.8005   -1.3251 C.3     1  UNL1        0.0050
     19 C          59.5063   95.2054   -0.2251 C.3     1  UNL1        0.0572
     20 C          59.6204   96.0850   -1.4348 C.3     1  UNL1        0.0050
     21 C          59.1806   87.9632    7.4983 C.ar    1  UNL1       -0.0032
     22 C          59.2947   88.8428    6.2885 C.ar    1  UNL1       -0.0046
     23 C          60.1426   90.0791    6.3374 C.ar    1  UNL1       -0.0225
     24 C          60.8766   90.4359    7.5960 C.ar    1  UNL1       -0.0046
     25 C          60.7626   89.5564    8.8057 C.ar    1  UNL1       -0.0032
     26 C          59.9146   88.3200    8.7568 C.ar    1  UNL1       -0.0062
     27 C          59.8006   87.4405    9.9665 C.3     1  UNL1        0.0993
     28 N          60.9903   87.2299   10.8555 N.3     1  UNL1       -0.2646
     29 C          61.4069   85.8396   11.2341 C.3     1  UNL1        0.1049
     30 C          62.5967   85.6291   12.1231 C.3     1  UNL1        0.1595
     31 O          63.3697   86.8089   12.6334 O.3     1  UNL1       -0.3508
     32 C          62.9531   88.1992   12.2548 C.3     1  UNL1        0.1595
     33 C          61.7634   88.4098   11.3658 C.3     1  UNL1        0.1049
@<TRIPOS>BOND
     1    21    22   ar
     2    22    23   ar
     3    23     1    1
     4     1     2    1
     5     2     3    1
     6     3     4    1
     7     4     5    1
     8     5     6    1
     9     4     7    1
    10     7     8    1
    11     8     9    1
    12     9    10    1
    13    10    11    1
    14     9    12    1
    15    12    13    1
    16    13    14    1
    17    14    15    1
    18    15    16    1
    19    16    17    1
    20    16    18    1
    21    18    19    1
    22    19    20    1
    23    23    24   ar
    24    24    25   ar
    25    25    26   ar
    26    26    27    1
    27    27    28    1
    28    28    29    1
    29    29    30    1
    30    30    31    1
    31    31    32    1
    32    32    33    1
    33    26    21   ar
    34    33    28    1
    35     6     1    1
    36    19     9    1
    37    11     4    1
    38    17    12    1
    39    20    14    1
