@<TRIPOS>MOLECULE
*****
 35 38 0 0 0
SMALL
GASTEIGER

@<TRIPOS>ATOM
      1 C          59.9063   88.0251    7.5063 C.2     1  UNL1        0.2685
      2 O          59.8841   86.6235    6.9725 O.2     1  UNL1       -0.2682
      3 N          60.5841   88.3200    8.8115 N.am    1  UNL1       -0.2723
      4 C          61.2398   87.2132    9.5830 C.3     1  UNL1        0.0761
      5 C          60.9830   86.8677   11.0199 C.3     1  UNL1        0.0213
      6 C          61.8518   85.6986   11.3779 C.3     1  UNL1        0.0190
      7 C          62.2301   84.7625   12.4873 C.3     1  UNL1        0.0722
      8 N          63.2577   83.8068   11.9573 N.3     1  UNL1       -0.2707
      9 C          63.5145   84.1523   10.5203 C.3     1  UNL1        0.0722
     10 C          62.6456   85.3215   10.1623 C.3     1  UNL1        0.0190
     11 C          62.2674   86.2576    9.0529 C.3     1  UNL1        0.0213
     12 C          63.9133   82.7001   12.7287 C.3     1  UNL1        0.0993
     13 C          63.1466   81.9703   13.7915 C.3     1  UNL1        0.1031
     14 C          62.5647   81.0628   12.7485 C.3     1  UNL1        0.0307
     15 C          63.7285   82.8777   14.8345 C.3     1  UNL1        0.0307
     16 O          62.3799   81.2403   14.8543 O.3     1  UNL1       -0.3854
     17 H          61.8599   80.5297   14.4475 H       1  UNL1        0.2103
     18 C          59.1752   92.2490    4.4233 C.3     1  UNL1        0.1321
     19 N          58.9146   91.0734    5.3178 N.ar    1  UNL1       -0.3057
     20 C          57.5688   90.5969    5.7778 C.ar    1  UNL1        0.1787
     21 N          57.7765   89.3969    6.6536 N.ar    1  UNL1       -0.2192
     22 C          59.2507   89.1319    6.7348 C.ar    1  UNL1        0.1535
     23 C          59.9540   90.1680    5.9093 C.ar    1  UNL1        0.1012
     24 C          60.6063   89.7216    9.3452 C.3     1  UNL1        0.1205
     25 C          61.7205   90.1631   10.2473 C.ar    1  UNL1        0.0007
     26 C          62.7900   91.0767    9.7263 C.ar    1  UNL1       -0.0024
     27 C          63.9042   91.5181   10.6284 C.ar    1  UNL1        0.0028
     28 C          63.9488   91.0461   12.0514 C.ar    1  UNL1        0.0372
     29 C          62.8793   90.1324   12.5725 C.ar    1  UNL1        0.1465
     30 C          61.7652   89.6910   11.6704 C.ar    1  UNL1        0.0346
     31 O          62.9239   89.6603   13.9955 O.3     1  UNL1       -0.4045
     32 C          63.9468   88.6478   14.4181 C.3     1  UNL1        0.5753
     33 F          64.9697   87.6353   14.8407 F       1  UNL1       -0.1328
     34 F          63.8765   88.0109   13.0619 F       1  UNL1       -0.1328
     35 F          64.0170   89.2847   15.7743 F       1  UNL1       -0.1328
@<TRIPOS>BOND
     1    18    19    1
     2    19    20   ar
     3    20    21   ar
     4    21    22   ar
     5    22     1    1
     6     1     2    2
     7     1     3   am
     8     3    24    1
     9    24    25    1
    10    25    26   ar
    11    26    27   ar
    12    27    28   ar
    13    28    29   ar
    14    29    31    1
    15    31    32    1
    16    32    33    1
    17    32    34    1
    18    32    35    1
    19    29    30   ar
    20     4     3    1
    21     4     5    1
    22     6     5    1
    23     6     7    1
    24     7     8    1
    25     8    12    1
    26    12    13    1
    27    13    14    1
    28    13    15    1
    29    13    16    1
    30     8     9    1
    31    10     9    1
    32    10    11    1
    33    22    23   ar
    34    23    19   ar
    35    30    25   ar
    36    11     4    1
    37    10     6    1
    38    16    17    1
@<TRIPOS>MOLECULE
*****
 35 38 0 0 0
SMALL
GASTEIGER

@<TRIPOS>ATOM
      1 C          63.8293   84.1820   13.7760 C.2     1  UNL1        0.2685
      2 O          65.0146   84.4418   14.6577 O.2     1  UNL1       -0.2682
      3 N          63.0973   85.3297   13.1459 N.am    1  UNL1       -0.2723
      4 C          63.5507   86.7372   13.3974 C.3     1  UNL1        0.0761
      5 C          64.3623   87.2061   14.5685 C.3     1  UNL1        0.0213
      6 C          64.5852   88.6816   14.4169 C.3     1  UNL1        0.0190
      7 C          65.2246   89.8834   15.0470 C.3     1  UNL1        0.0722
      8 N          64.9461   91.0692   14.1715 N.3     1  UNL1       -0.2707
      9 C          64.1345   90.6003   13.0004 C.3     1  UNL1        0.0722
     10 C          63.9115   89.1247   13.1520 C.3     1  UNL1        0.0190
     11 C          63.2722   87.9230   12.5220 C.3     1  UNL1        0.0213
     12 C          65.3995   92.4767   14.4231 C.3     1  UNL1        0.0993
     13 C          66.8643   92.7966   14.4651 C.3     1  UNL1        0.1031
     14 C          66.9221   92.7292   12.9678 C.3     1  UNL1        0.0307
     15 C          66.8067   92.8640   15.9625 C.3     1  UNL1        0.0307
     16 O          68.3293   93.1165   14.5072 O.3     1  UNL1       -0.3854
     17 H          68.6802   93.1444   13.6034 H       1  UNL1        0.2103
     18 C          62.8554   79.5688   11.3988 C.3     1  UNL1        0.1321
     19 N          62.9281   80.6541   12.4318 N.ar    1  UNL1       -0.3057
     20 C          62.4277   80.5630   13.8428 C.ar    1  UNL1        0.1787
     21 N          62.7044   81.8736   14.5182 N.ar    1  UNL1       -0.2192
     22 C          63.3758   82.7745   13.5244 C.ar    1  UNL1        0.1535
     23 C          63.5141   82.0208   12.2350 C.ar    1  UNL1        0.1012
     24 C          61.9120   85.0698   12.2642 C.3     1  UNL1        0.1205
     25 C          62.0287   85.2466   10.7792 C.ar    1  UNL1        0.0007
     26 C          63.1578   84.5995   10.0333 C.ar    1  UNL1       -0.0024
     27 C          63.2746   84.7762    8.5484 C.ar    1  UNL1        0.0028
     28 C          62.2623   85.6001    7.8092 C.ar    1  UNL1        0.0372
     29 C          61.1331   86.2472    8.5550 C.ar    1  UNL1        0.1465
     30 C          61.0163   86.0705   10.0400 C.ar    1  UNL1        0.0346
     31 O          60.1207   87.0711    7.8159 O.3     1  UNL1       -0.4045
     32 C          59.9013   88.5060    8.1939 C.3     1  UNL1        0.5753
     33 F          59.6819   89.9410    8.5718 F       1  UNL1       -0.1328
     34 F          61.2197   88.5192    8.9092 F       1  UNL1       -0.1328
     35 F          58.5829   88.4929    7.4785 F       1  UNL1       -0.1328
@<TRIPOS>BOND
     1    18    19    1
     2    19    20   ar
     3    20    21   ar
     4    21    22   ar
     5    22     1    1
     6     1     2    2
     7     1     3   am
     8     3    24    1
     9    24    25    1
    10    25    26   ar
    11    26    27   ar
    12    27    28   ar
    13    28    29   ar
    14    29    31    1
    15    31    32    1
    16    32    33    1
    17    32    34    1
    18    32    35    1
    19    29    30   ar
    20     4     3    1
    21     4     5    1
    22     6     5    1
    23     6     7    1
    24     7     8    1
    25     8    12    1
    26    12    13    1
    27    13    14    1
    28    13    15    1
    29    13    16    1
    30     8     9    1
    31    10     9    1
    32    10    11    1
    33    22    23   ar
    34    23    19   ar
    35    30    25   ar
    36    11     4    1
    37    10     6    1
    38    16    17    1
@<TRIPOS>MOLECULE
*****
 35 38 0 0 0
SMALL
GASTEIGER

@<TRIPOS>ATOM
      1 C          65.1909   91.6641   12.9361 C.2     1  UNL1        0.2685
      2 O          65.2139   91.9148   11.4574 O.2     1  UNL1       -0.2682
      3 N          64.1649   90.7416   13.5245 N.am    1  UNL1       -0.2723
      4 C          63.1618   90.0697   12.6342 C.3     1  UNL1        0.0761
      5 C          63.2280   88.6543   12.1423 C.3     1  UNL1        0.0213
      6 C          62.0236   88.4052   11.2837 C.3     1  UNL1        0.0190
      7 C          61.3201   87.3764   10.4490 C.3     1  UNL1        0.0722
      8 N          60.0747   88.0021    9.8943 N.3     1  UNL1       -0.2707
      9 C          60.0086   89.4177   10.3862 C.3     1  UNL1        0.0722
     10 C          61.2130   89.6667   11.2449 C.3     1  UNL1        0.0190
     11 C          61.9165   90.6955   12.0796 C.3     1  UNL1        0.0213
     12 C          59.0718   87.3304    9.0041 C.3     1  UNL1        0.0993
     13 C          59.3236   87.2351    7.5284 C.3     1  UNL1        0.1031
     14 C          59.8563   85.8446    7.7091 C.3     1  UNL1        0.0307
     15 C          58.7909   88.6256    7.3477 C.3     1  UNL1        0.0307
     16 O          59.5755   87.1399    6.0527 O.3     1  UNL1       -0.3854
     17 H          59.9546   86.2716    5.8448 H       1  UNL1        0.2103
     18 C          69.2830   92.4787   16.1722 C.3     1  UNL1        0.1321
     19 N          68.0747   92.7104   15.3138 N.ar    1  UNL1       -0.3057
     20 C          67.3998   94.0292   15.0791 C.ar    1  UNL1        0.1787
     21 N          66.2373   93.7977   14.1598 N.ar    1  UNL1       -0.2192
     22 C          66.1939   92.3359   13.8264 C.ar    1  UNL1        0.1535
     23 C          67.3294   91.6639   14.5396 C.ar    1  UNL1        0.1012
     24 C          64.1419   90.4909   15.0032 C.3     1  UNL1        0.1205
     25 C          63.8995   89.1058   15.5254 C.ar    1  UNL1        0.0007
     26 C          63.0557   88.9025   16.7488 C.ar    1  UNL1       -0.0024
     27 C          62.8133   87.5174   17.2710 C.ar    1  UNL1        0.0028
     28 C          63.4146   86.3355   16.5699 C.ar    1  UNL1        0.0372
     29 C          64.2584   86.5388   15.3464 C.ar    1  UNL1        0.1465
     30 C          64.5008   87.9239   14.8242 C.ar    1  UNL1        0.0346
     31 O          64.8597   85.3570   14.6452 O.3     1  UNL1       -0.4045
     32 C          63.9703   84.3135   14.0368 C.3     1  UNL1        0.5753
     33 F          63.0809   83.2700   13.4284 F       1  UNL1       -0.1328
     34 F          64.4164   83.3277   15.0756 F       1  UNL1       -0.1328
     35 F          63.5243   85.2993   12.9980 F       1  UNL1       -0.1328
@<TRIPOS>BOND
     1    18    19    1
     2    19    20   ar
     3    20    21   ar
     4    21    22   ar
     5    22     1    1
     6     1     2    2
     7     1     3   am
     8     3    24    1
     9    24    25    1
    10    25    26   ar
    11    26    27   ar
    12    27    28   ar
    13    28    29   ar
    14    29    31    1
    15    31    32    1
    16    32    33    1
    17    32    34    1
    18    32    35    1
    19    29    30   ar
    20     4     3    1
    21     4     5    1
    22     6     5    1
    23     6     7    1
    24     7     8    1
    25     8    12    1
    26    12    13    1
    27    13    14    1
    28    13    15    1
    29    13    16    1
    30     8     9    1
    31    10     9    1
    32    10    11    1
    33    22    23   ar
    34    23    19   ar
    35    30    25   ar
    36    11     4    1
    37    10     6    1
    38    16    17    1
@<TRIPOS>MOLECULE
*****
 35 38 0 0 0
SMALL
GASTEIGER

@<TRIPOS>ATOM
      1 C          59.9007   88.0119    7.4939 C.2     1  UNL1        0.2685
      2 O          59.8577   86.6100    6.9621 O.2     1  UNL1       -0.2682
      3 N          60.5956   88.3009    8.7914 N.am    1  UNL1       -0.2723
      4 C          61.2476   87.1880    9.5572 C.3     1  UNL1        0.0761
      5 C          60.9814   86.8289   10.9890 C.3     1  UNL1        0.0213
      6 C          61.8496   85.6578   11.3422 C.3     1  UNL1        0.0190
      7 C          62.2216   84.7121   12.4455 C.3     1  UNL1        0.0722
      8 N          63.2543   83.7629   11.9139 N.3     1  UNL1       -0.2707
      9 C          63.5205   84.1220   10.4820 C.3     1  UNL1        0.0722
     10 C          62.6523   85.2931   10.1287 C.3     1  UNL1        0.0190
     11 C          62.2803   86.2388    9.0255 C.3     1  UNL1        0.0213
     12 C          63.9063   82.6500   12.6796 C.3     1  UNL1        0.0993
     13 C          63.1336   81.9096   13.7306 C.3     1  UNL1        0.1031
     14 C          63.6758   82.8337   14.7803 C.3     1  UNL1        0.0307
     15 C          62.5913   80.9854   12.6809 C.3     1  UNL1        0.0307
     16 O          62.3609   81.1691   14.7816 O.3     1  UNL1       -0.3854
     17 H          62.5249   81.5729   15.6482 H       1  UNL1        0.2103
     18 C          59.1828   92.2483    4.4249 C.3     1  UNL1        0.1321
     19 N          58.9187   91.0720    5.3176 N.ar    1  UNL1       -0.3057
     20 C          57.5719   90.6028    5.7823 C.ar    1  UNL1        0.1787
     21 N          57.7759   89.3993    6.6541 N.ar    1  UNL1       -0.2192
     22 C          59.2487   89.1248    6.7282 C.ar    1  UNL1        0.1535
     23 C          59.9550   90.1586    5.9021 C.ar    1  UNL1        0.1012
     24 C          60.6386   89.7028    9.3231 C.3     1  UNL1        0.1205
     25 C          61.7146   90.1067   10.2869 C.ar    1  UNL1        0.0007
     26 C          61.7376   89.5286   11.6708 C.ar    1  UNL1       -0.0024
     27 C          62.8137   89.9325   12.6346 C.ar    1  UNL1        0.0028
     28 C          63.8668   90.9146   12.2146 C.ar    1  UNL1        0.0372
     29 C          63.8439   91.4928   10.8307 C.ar    1  UNL1        0.1465
     30 C          62.7678   91.0889    9.8669 C.ar    1  UNL1        0.0346
     31 O          64.8969   92.4749   10.4106 O.3     1  UNL1       -0.4045
     32 C          66.1380   92.6427   11.2361 C.3     1  UNL1        0.5753
     33 F          67.3791   92.8106   12.0618 F       1  UNL1       -0.1328
     34 F          66.9217   91.8734   10.2144 F       1  UNL1       -0.1328
     35 F          65.3543   93.4120   12.2579 F       1  UNL1       -0.1328
@<TRIPOS>BOND
     1    18    19    1
     2    19    20   ar
     3    20    21   ar
     4    21    22   ar
     5    22     1    1
     6     1     2    2
     7     1     3   am
     8     3    24    1
     9    24    25    1
    10    25    26   ar
    11    26    27   ar
    12    27    28   ar
    13    28    29   ar
    14    29    31    1
    15    31    32    1
    16    32    33    1
    17    32    34    1
    18    32    35    1
    19    29    30   ar
    20     4     3    1
    21     4     5    1
    22     6     5    1
    23     6     7    1
    24     7     8    1
    25     8    12    1
    26    12    13    1
    27    13    14    1
    28    13    15    1
    29    13    16    1
    30     8     9    1
    31    10     9    1
    32    10    11    1
    33    22    23   ar
    34    23    19   ar
    35    30    25   ar
    36    11     4    1
    37    10     6    1
    38    16    17    1
@<TRIPOS>MOLECULE
*****
 35 38 0 0 0
SMALL
GASTEIGER

@<TRIPOS>ATOM
      1 C          64.1282   84.4540   13.5399 C.2     1  UNL1        0.2685
      2 O          65.4428   84.7163   14.2129 O.2     1  UNL1       -0.2682
      3 N          63.2334   85.5995   13.1695 N.am    1  UNL1       -0.2723
      4 C          63.6533   87.0074   13.4722 C.3     1  UNL1        0.0761
      5 C          63.4262   88.2029   12.5952 C.3     1  UNL1        0.0213
      6 C          64.0065   89.4013   13.2860 C.3     1  UNL1        0.0190
      7 C          64.2248   90.8809   13.1709 C.3     1  UNL1        0.0722
      8 N          64.9453   91.3404   14.4037 N.3     1  UNL1       -0.2707
      9 C          65.1723   90.1448   15.2807 C.3     1  UNL1        0.0722
     10 C          64.5921   88.9464   14.5899 C.3     1  UNL1        0.0190
     11 C          64.3738   87.4668   14.7050 C.3     1  UNL1        0.0213
     12 C          65.3651   92.7482   14.7063 C.3     1  UNL1        0.0993
     13 C          66.8147   93.1286   14.6434 C.3     1  UNL1        0.1031
     14 C          66.9539   92.8405   16.1088 C.3     1  UNL1        0.0307
     15 C          66.6756   93.4167   13.1779 C.3     1  UNL1        0.0307
     16 O          68.2644   93.5090   14.5804 O.3     1  UNL1       -0.3854
     17 H          68.6617   93.4154   15.4603 H       1  UNL1        0.2103
     18 C          62.9321   80.0206   10.9330 C.3     1  UNL1        0.1321
     19 N          63.1585   81.0083   12.0391 N.ar    1  UNL1       -0.3057
     20 C          62.9658   80.7508   13.5041 C.ar    1  UNL1        0.1787
     21 N          63.3056   82.0103   14.2447 N.ar    1  UNL1       -0.2192
     22 C          63.7083   83.0461   13.2372 C.ar    1  UNL1        0.1535
     23 C          63.6174   82.4269   11.8741 C.ar    1  UNL1        0.1012
     24 C          61.9189   85.3371   12.4965 C.3     1  UNL1        0.1205
     25 C          61.6576   85.8809   11.1232 C.ar    1  UNL1        0.0007
     26 C          60.7109   87.0298   10.9391 C.ar    1  UNL1       -0.0024
     27 C          60.4497   87.5737    9.5658 C.ar    1  UNL1        0.0028
     28 C          61.1351   86.9688    8.3766 C.ar    1  UNL1        0.0372
     29 C          62.0819   85.8199    8.5606 C.ar    1  UNL1        0.1465
     30 C          62.3431   85.2760    9.9339 C.ar    1  UNL1        0.0346
     31 O          62.7674   85.2150    7.3715 O.3     1  UNL1       -0.4045
     32 C          61.9568   84.5729    6.2849 C.3     1  UNL1        0.5753
     33 F          61.1462   83.9309    5.1982 F       1  UNL1       -0.1328
     34 F          63.2020   84.3769    5.4719 F       1  UNL1       -0.1328
     35 F          60.7116   84.7690    7.0979 F       1  UNL1       -0.1328
@<TRIPOS>BOND
     1    18    19    1
     2    19    20   ar
     3    20    21   ar
     4    21    22   ar
     5    22     1    1
     6     1     2    2
     7     1     3   am
     8     3    24    1
     9    24    25    1
    10    25    26   ar
    11    26    27   ar
    12    27    28   ar
    13    28    29   ar
    14    29    31    1
    15    31    32    1
    16    32    33    1
    17    32    34    1
    18    32    35    1
    19    29    30   ar
    20     4     3    1
    21     4     5    1
    22     6     5    1
    23     6     7    1
    24     7     8    1
    25     8    12    1
    26    12    13    1
    27    13    14    1
    28    13    15    1
    29    13    16    1
    30     8     9    1
    31    10     9    1
    32    10    11    1
    33    22    23   ar
    34    23    19   ar
    35    30    25   ar
    36    11     4    1
    37    10     6    1
    38    16    17    1
@<TRIPOS>MOLECULE
*****
 35 38 0 0 0
SMALL
GASTEIGER

@<TRIPOS>ATOM
      1 C          61.8041   88.2370    9.7008 C.2     1  UNL1        0.2685
      2 O          62.2967   89.5550    9.1813 O.2     1  UNL1       -0.2682
      3 N          62.0937   87.8330   11.1160 N.am    1  UNL1       -0.2723
      4 C          62.8759   88.7472   12.0119 C.3     1  UNL1        0.0761
      5 C          63.6130   88.3451   13.2548 C.3     1  UNL1        0.0213
      6 C          64.2510   89.5734   13.8331 C.3     1  UNL1        0.0190
      7 C          65.1008   90.0840   14.9587 C.3     1  UNL1        0.0722
      8 N          65.2833   91.5608   14.7688 N.3     1  UNL1       -0.2707
      9 C          64.5461   91.9628   13.5258 C.3     1  UNL1        0.0722
     10 C          63.9081   90.7345   12.9475 C.3     1  UNL1        0.0190
     11 C          63.0582   90.2239   11.8219 C.3     1  UNL1        0.0213
     12 C          66.0654   92.4749   15.6645 C.3     1  UNL1        0.0993
     13 C          67.4274   92.9469   15.2495 C.3     1  UNL1        0.1031
     14 C          66.8019   93.8679   14.2442 C.3     1  UNL1        0.0307
     15 C          68.0530   92.0260   16.2547 C.3     1  UNL1        0.0307
     16 O          68.7894   93.4189   14.8344 O.3     1  UNL1       -0.3854
     17 H          68.7016   94.0822   14.1321 H       1  UNL1        0.2103
     18 C          60.5597   84.3948    6.2992 C.3     1  UNL1        0.1321
     19 N          60.4498   85.5568    7.2416 N.ar    1  UNL1       -0.3057
     20 C          59.1862   86.2751    7.6118 C.ar    1  UNL1        0.1787
     21 N          59.5398   87.3666    8.5782 N.ar    1  UNL1       -0.2192
     22 C          61.0219   87.3227    8.8050 C.ar    1  UNL1        0.1535
     23 C          61.5843   86.2042    7.9790 C.ar    1  UNL1        0.1012
     24 C          61.6010   86.5149   11.6355 C.3     1  UNL1        0.1205
     25 C          62.4384   85.2819   11.4666 C.ar    1  UNL1        0.0007
     26 C          63.1508   85.0308   10.1707 C.ar    1  UNL1       -0.0024
     27 C          63.9882   83.7978   10.0018 C.ar    1  UNL1        0.0028
     28 C          64.1132   82.8159   11.1288 C.ar    1  UNL1        0.0372
     29 C          63.4008   83.0669   12.4248 C.ar    1  UNL1        0.1465
     30 C          62.5634   84.2999   12.5937 C.ar    1  UNL1        0.0346
     31 O          63.5258   82.0851   13.5519 O.3     1  UNL1       -0.4045
     32 C          62.3427   81.2588   13.9614 C.3     1  UNL1        0.5753
     33 F          61.1596   80.4326   14.3710 F       1  UNL1       -0.1328
     34 F          62.6619   80.2670   12.8823 F       1  UNL1       -0.1328
     35 F          62.0236   82.2507   15.0405 F       1  UNL1       -0.1328
@<TRIPOS>BOND
     1    18    19    1
     2    19    20   ar
     3    20    21   ar
     4    21    22   ar
     5    22     1    1
     6     1     2    2
     7     1     3   am
     8     3    24    1
     9    24    25    1
    10    25    26   ar
    11    26    27   ar
    12    27    28   ar
    13    28    29   ar
    14    29    31    1
    15    31    32    1
    16    32    33    1
    17    32    34    1
    18    32    35    1
    19    29    30   ar
    20     4     3    1
    21     4     5    1
    22     6     5    1
    23     6     7    1
    24     7     8    1
    25     8    12    1
    26    12    13    1
    27    13    14    1
    28    13    15    1
    29    13    16    1
    30     8     9    1
    31    10     9    1
    32    10    11    1
    33    22    23   ar
    34    23    19   ar
    35    30    25   ar
    36    11     4    1
    37    10     6    1
    38    16    17    1
@<TRIPOS>MOLECULE
*****
 35 38 0 0 0
SMALL
GASTEIGER

@<TRIPOS>ATOM
      1 C          61.7001   88.3495    9.6195 C.2     1  UNL1        0.2685
      2 O          62.1486   89.6904    9.1189 O.2     1  UNL1       -0.2682
      3 N          62.0323   87.9215   11.0183 N.am    1  UNL1       -0.2723
      4 C          62.8131   88.8345   11.9164 C.3     1  UNL1        0.0761
      5 C          63.0287   90.3042   11.7076 C.3     1  UNL1        0.0213
      6 C          63.8643   90.8161   12.8432 C.3     1  UNL1        0.0190
      7 C          64.5139   92.0407   13.4161 C.3     1  UNL1        0.0722
      8 N          65.2163   91.6444   14.6808 N.3     1  UNL1       -0.2707
      9 C          65.0008   90.1746   14.8896 C.3     1  UNL1        0.0722
     10 C          64.1652   89.6628   13.7540 C.3     1  UNL1        0.0190
     11 C          63.5155   88.4381   13.1812 C.3     1  UNL1        0.0213
     12 C          65.9971   92.5573   15.5790 C.3     1  UNL1        0.0993
     13 C          67.3835   92.9819   15.1947 C.3     1  UNL1        0.1031
     14 C          67.9534   92.0577   16.2295 C.3     1  UNL1        0.0307
     15 C          66.8137   93.9062   14.1598 C.3     1  UNL1        0.0307
     16 O          68.7699   93.4066   14.8104 O.3     1  UNL1       -0.3854
     17 H          69.4163   92.9346   15.3585 H       1  UNL1        0.2103
     18 C          60.4433   84.4457    6.2936 C.3     1  UNL1        0.1321
     19 N          60.3414   85.6421    7.1927 N.ar    1  UNL1       -0.3057
     20 C          59.0935   86.4208    7.4860 C.ar    1  UNL1        0.1787
     21 N          59.4506   87.5298    8.4309 N.ar    1  UNL1       -0.2192
     22 C          60.9192   87.4364    8.7214 C.ar    1  UNL1        0.1535
     23 C          61.4698   86.2698    7.9562 C.ar    1  UNL1        0.1012
     24 C          61.5836   86.5806   11.5188 C.3     1  UNL1        0.1205
     25 C          62.5610   85.4458   11.6023 C.ar    1  UNL1        0.0007
     26 C          62.8531   84.6166   10.3870 C.ar    1  UNL1       -0.0024
     27 C          63.8306   83.4818   10.4705 C.ar    1  UNL1        0.0028
     28 C          64.5159   83.1762   11.7692 C.ar    1  UNL1        0.0372
     29 C          64.2238   84.0054   12.9847 C.ar    1  UNL1        0.1465
     30 C          63.2464   85.1402   12.9012 C.ar    1  UNL1        0.0346
     31 O          64.9091   83.6999   14.2835 O.3     1  UNL1       -0.4045
     32 C          64.6206   84.5322   15.4976 C.3     1  UNL1        0.5753
     33 F          64.3322   85.3646   16.7118 F       1  UNL1       -0.1328
     34 F          63.5672   83.5513   15.9197 F       1  UNL1       -0.1328
     35 F          65.6741   85.5130   15.0755 F       1  UNL1       -0.1328
@<TRIPOS>BOND
     1    18    19    1
     2    19    20   ar
     3    20    21   ar
     4    21    22   ar
     5    22     1    1
     6     1     2    2
     7     1     3   am
     8     3    24    1
     9    24    25    1
    10    25    26   ar
    11    26    27   ar
    12    27    28   ar
    13    28    29   ar
    14    29    31    1
    15    31    32    1
    16    32    33    1
    17    32    34    1
    18    32    35    1
    19    29    30   ar
    20     4     3    1
    21     4     5    1
    22     6     5    1
    23     6     7    1
    24     7     8    1
    25     8    12    1
    26    12    13    1
    27    13    14    1
    28    13    15    1
    29    13    16    1
    30     8     9    1
    31    10     9    1
    32    10    11    1
    33    22    23   ar
    34    23    19   ar
    35    30    25   ar
    36    11     4    1
    37    10     6    1
    38    16    17    1
@<TRIPOS>MOLECULE
*****
 35 38 0 0 0
SMALL
GASTEIGER

@<TRIPOS>ATOM
      1 C          61.9988   88.2600    9.8578 C.2     1  UNL1        0.2685
      2 O          62.5385   89.5446    9.3024 O.2     1  UNL1       -0.2682
      3 N          62.2386   87.9049   11.2952 N.am    1  UNL1       -0.2723
      4 C          63.0183   88.8344   12.1774 C.3     1  UNL1        0.0761
      5 C          63.3917   90.2507   11.8542 C.3     1  UNL1        0.0213
      6 C          64.1656   90.8023   13.0147 C.3     1  UNL1        0.0190
      7 C          64.8747   92.0186   13.5322 C.3     1  UNL1        0.0722
      8 N          65.4179   91.6949   14.8925 N.3     1  UNL1       -0.2707
      9 C          65.0444   90.2785   15.2156 C.3     1  UNL1        0.0722
     10 C          64.2705   89.7269   14.0551 C.3     1  UNL1        0.0190
     11 C          63.5614   88.5106   13.5376 C.3     1  UNL1        0.0213
     12 C          66.1975   92.6243   15.7746 C.3     1  UNL1        0.0993
     13 C          67.5786   93.0537   15.3770 C.3     1  UNL1        0.1031
     14 C          68.1634   92.0784   16.3551 C.3     1  UNL1        0.0307
     15 C          66.9939   94.0290   14.3988 C.3     1  UNL1        0.0307
     16 O          68.9598   93.4830   14.9793 O.3     1  UNL1       -0.3854
     17 H          69.6141   92.9809   15.4899 H       1  UNL1        0.2103
     18 C          60.7659   84.3683    6.5087 C.3     1  UNL1        0.1321
     19 N          60.6523   85.5417    7.4363 N.ar    1  UNL1       -0.3057
     20 C          59.3860   86.2585    7.8002 C.ar    1  UNL1        0.1787
     21 N          59.7363   87.3641    8.7517 N.ar    1  UNL1       -0.2192
     22 C          61.2191   87.3305    8.9756 C.ar    1  UNL1        0.1535
     23 C          61.7852   86.2042    8.1628 C.ar    1  UNL1        0.1012
     24 C          61.6988   86.6203   11.8505 C.3     1  UNL1        0.1205
     25 C          62.6142   85.4508   12.0608 C.ar    1  UNL1        0.0007
     26 C          63.5878   85.4560   13.2020 C.ar    1  UNL1       -0.0024
     27 C          64.5032   84.2865   13.4122 C.ar    1  UNL1        0.0028
     28 C          64.4452   83.1118   12.4814 C.ar    1  UNL1        0.0372
     29 C          63.4717   83.1064   11.3402 C.ar    1  UNL1        0.1465
     30 C          62.5563   84.2759   11.1299 C.ar    1  UNL1        0.0346
     31 O          63.4136   81.9317   10.4093 O.3     1  UNL1       -0.4045
     32 C          62.9811   80.5898   10.9213 C.3     1  UNL1        0.5753
     33 F          62.5486   79.2477   11.4332 F       1  UNL1       -0.1328
     34 F          62.5686   81.2180   12.2194 F       1  UNL1       -0.1328
     35 F          63.3936   79.9616    9.6231 F       1  UNL1       -0.1328
@<TRIPOS>BOND
     1    18    19    1
     2    19    20   ar
     3    20    21   ar
     4    21    22   ar
     5    22     1    1
     6     1     2    2
     7     1     3   am
     8     3    24    1
     9    24    25    1
    10    25    26   ar
    11    26    27   ar
    12    27    28   ar
    13    28    29   ar
    14    29    31    1
    15    31    32    1
    16    32    33    1
    17    32    34    1
    18    32    35    1
    19    29    30   ar
    20     4     3    1
    21     4     5    1
    22     6     5    1
    23     6     7    1
    24     7     8    1
    25     8    12    1
    26    12    13    1
    27    13    14    1
    28    13    15    1
    29    13    16    1
    30     8     9    1
    31    10     9    1
    32    10    11    1
    33    22    23   ar
    34    23    19   ar
    35    30    25   ar
    36    11     4    1
    37    10     6    1
    38    16    17    1
@<TRIPOS>MOLECULE
*****
 35 38 0 0 0
SMALL
GASTEIGER

@<TRIPOS>ATOM
      1 C          64.5114   88.6693   14.5101 C.2     1  UNL1        0.2685
      2 O          65.8406   89.2037   14.9545 O.2     1  UNL1       -0.2682
      3 N          63.7402   89.3760   13.4350 N.am    1  UNL1       -0.2723
      4 C          64.2984   90.6173   12.8042 C.3     1  UNL1        0.0761
      5 C          65.2212   91.6012   13.4602 C.3     1  UNL1        0.0213
      6 C          65.5248   92.6844   12.4680 C.3     1  UNL1        0.0190
      7 C          66.2827   93.9620   12.2603 C.3     1  UNL1        0.0722
      8 N          66.0160   94.4373   10.8627 N.3     1  UNL1       -0.2707
      9 C          65.0931   93.4533   10.2068 C.3     1  UNL1        0.0722
     10 C          64.7895   92.3701   11.1989 C.3     1  UNL1        0.0190
     11 C          64.0315   91.0924   11.4067 C.3     1  UNL1        0.0213
     12 C          66.5741   95.6784   10.2319 C.3     1  UNL1        0.0993
     13 C          66.2035   96.0354    8.8229 C.3     1  UNL1        0.1031
     14 C          65.0553   96.8550    9.3325 C.3     1  UNL1        0.0307
     15 C          67.3517   95.2157    8.3133 C.3     1  UNL1        0.0307
     16 O          65.8329   96.3923    7.4139 O.3     1  UNL1       -0.3854
     17 H          65.0530   96.9690    7.4208 H       1  UNL1        0.2103
     18 C          63.3886   83.6040   15.4916 C.3     1  UNL1        0.1321
     19 N          63.4371   85.0999   15.5921 N.ar    1  UNL1       -0.3057
     20 C          62.7512   85.9363   16.6312 C.ar    1  UNL1        0.1787
     21 N          63.0702   87.3753   16.3523 N.ar    1  UNL1       -0.2192
     22 C          63.9532   87.4281   15.1409 C.ar    1  UNL1        0.1535
     23 C          64.1799   86.0218   14.6710 C.ar    1  UNL1        0.1012
     24 C          62.4110   88.8416   12.9908 C.3     1  UNL1        0.1205
     25 C          62.3087   88.0435   11.7248 C.ar    1  UNL1        0.0007
     26 C          61.9247   88.7187   10.4415 C.ar    1  UNL1       -0.0024
     27 C          61.8224   87.9206    9.1756 C.ar    1  UNL1        0.0028
     28 C          62.1041   86.4474    9.1928 C.ar    1  UNL1        0.0372
     29 C          62.4881   85.7722   10.4761 C.ar    1  UNL1        0.1465
     30 C          62.5904   86.5702   11.7420 C.ar    1  UNL1        0.0346
     31 O          62.7697   84.2990   10.4934 O.3     1  UNL1       -0.4045
     32 C          63.6507   83.7163   11.5585 C.3     1  UNL1        0.5753
     33 F          64.5316   83.1336   12.6236 F       1  UNL1       -0.1328
     34 F          64.7958   83.6782   10.5904 F       1  UNL1       -0.1328
     35 F          62.5055   83.7544   12.5265 F       1  UNL1       -0.1328
@<TRIPOS>BOND
     1    18    19    1
     2    19    20   ar
     3    20    21   ar
     4    21    22   ar
     5    22     1    1
     6     1     2    2
     7     1     3   am
     8     3    24    1
     9    24    25    1
    10    25    26   ar
    11    26    27   ar
    12    27    28   ar
    13    28    29   ar
    14    29    31    1
    15    31    32    1
    16    32    33    1
    17    32    34    1
    18    32    35    1
    19    29    30   ar
    20     4     3    1
    21     4     5    1
    22     6     5    1
    23     6     7    1
    24     7     8    1
    25     8    12    1
    26    12    13    1
    27    13    14    1
    28    13    15    1
    29    13    16    1
    30     8     9    1
    31    10     9    1
    32    10    11    1
    33    22    23   ar
    34    23    19   ar
    35    30    25   ar
    36    11     4    1
    37    10     6    1
    38    16    17    1
