@<TRIPOS>MOLECULE
*****
 53 59 0 0 0
SMALL
GASTEIGER

@<TRIPOS>ATOM
      1 N          61.4316   86.9383    9.3400 N.ar    1  UNL1       -0.1285
      2 N          62.3657   85.8303    8.9530 N.ar    1  UNL1       -0.0406
      3 N          62.9582   85.2636   10.2091 N.ar    1  UNL1       -0.1074
      4 C          62.3904   86.0215   11.3724 C.ar    1  UNL1        0.2075
      5 N          61.4469   87.0565   10.8353 N.ar    1  UNL1       -0.1253
      6 C          59.0090   89.4645    6.5117 C.ar    1  UNL1       -0.0207
      7 C          59.7579   90.1098    7.6398 C.ar    1  UNL1       -0.0026
      8 C          60.5655   89.2676    8.5826 C.ar    1  UNL1        0.0206
      9 C          60.6241   87.7803    8.3972 C.ar    1  UNL1        0.1045
     10 C          59.8752   87.1351    7.2690 C.ar    1  UNL1        0.0206
     11 C          59.0677   87.9771    6.3263 C.ar    1  UNL1       -0.0026
     12 C          58.2015   90.3065    5.5689 C.3     1  UNL1        0.0437
     13 C          58.6303   91.7109    5.2627 C.3     1  UNL1        0.0771
     14 C          63.0090   93.6225    0.3207 C.ar    1  UNL1        0.1721
     15 C          63.1896   92.7003    1.4898 C.ar    1  UNL1        0.0356
     16 C          62.0497   92.4529    2.4331 C.ar    1  UNL1       -0.0202
     17 C          60.7293   93.1278    2.2071 C.ar    1  UNL1       -0.0068
     18 C          60.5487   94.0500    1.0379 C.ar    1  UNL1        0.0368
     19 C          61.6885   94.2974    0.0948 C.ar    1  UNL1        0.1721
     20 C          59.5895   92.8805    3.1503 C.3     1  UNL1        0.0990
     21 N          59.7701   91.9583    4.3194 N.3     1  UNL1       -0.2683
     22 C          61.0905   91.2834    4.5454 C.3     1  UNL1        0.0771
     23 C          62.2303   91.5307    3.6022 C.3     1  UNL1        0.0435
     24 C          65.0085   95.0878   -0.4569 C.3     1  UNL1        0.2526
     25 O          64.1488   93.8699   -0.6225 O.3     1  UNL1       -0.4684
     26 O          61.5080   95.2196   -1.0744 O.3     1  UNL1       -0.4684
     27 C          61.1869   94.6599   -2.4285 C.3     1  UNL1        0.2526
     28 C          62.7100   85.7857   12.8189 C.ar    1  UNL1        0.0560
     29 C          62.2015   84.5544   13.5083 C.ar    1  UNL1        0.0444
     30 C          62.5210   84.3186   14.9547 C.ar    1  UNL1        0.1726
     31 C          63.3491   85.3142   15.7118 C.ar    1  UNL1        0.1736
     32 C          63.8576   86.5454   15.0224 C.ar    1  UNL1        0.0548
     33 C          63.5381   86.7812   13.5760 C.ar    1  UNL1        0.0568
     34 N          64.0466   88.0126   12.8866 N.am    1  UNL1       -0.2802
     35 C          63.8811   89.3562   13.5325 C.2     1  UNL1        0.2495
     36 O          63.2071   89.4686   14.8678 O.2     1  UNL1       -0.2698
     37 H          64.4890   87.9388   12.0101 H       1  UNL1        0.1552
     38 C          64.3897   90.5876   12.8431 C.ar    1  UNL1        0.0537
     39 C          65.4339   91.4390   13.5024 C.ar    1  UNL1        0.0045
     40 C          65.9424   92.6703   12.8130 C.ar    1  UNL1        0.0002
     41 C          65.4066   93.0502   11.4644 C.ar    1  UNL1        0.0015
     42 C          64.3623   92.1987   10.8052 C.ar    1  UNL1        0.0002
     43 C          63.8539   90.9674   11.4946 C.ar    1  UNL1        0.0045
     44 C          65.9151   94.2815   10.7750 C.ar    1  UNL1        0.0192
     45 C          66.5832   94.1699    9.4366 C.ar    1  UNL1        0.0031
     46 C          67.0917   95.4012    8.7471 C.ar    1  UNL1        0.0207
     47 C          66.9321   96.7441    9.3961 C.ar    1  UNL1        0.0989
     48 N          66.2640   96.8557   10.7344 N.ar    1  UNL1       -0.2423
     49 C          65.7555   95.6244   11.4239 C.ar    1  UNL1        0.0988
     50 O          62.0124   83.0873   15.6441 O.3     1  UNL1       -0.4684
     51 C          61.7688   81.8337   14.8572 C.3     1  UNL1        0.2526
     52 O          63.6687   85.0784   17.1583 O.3     1  UNL1       -0.4683
     53 C          63.1309   86.0071   18.2062 C.3     1  UNL1        0.2526
@<TRIPOS>BOND
     1    24    25    1
     2    25    14    1
     3    14    15   ar
     4    15    16   ar
     5    16    17   ar
     6    17    18   ar
     7    18    19   ar
     8    19    26    1
     9    26    27    1
    10    17    20    1
    11    20    21    1
    12    21    13    1
    13    13    12    1
    14    12     6    1
    15     6     7   ar
    16     7     8   ar
    17     8     9   ar
    18     9     1    1
    19     1     2   ar
    20     2     3   ar
    21     3     4   ar
    22     4    28    1
    23    28    29   ar
    24    29    30   ar
    25    30    50    1
    26    50    51    1
    27    30    31   ar
    28    31    52    1
    29    52    53    1
    30    31    32   ar
    31    32    33   ar
    32    33    34    1
    33    34    35   am
    34    35    36    2
    35    35    38    1
    36    38    39   ar
    37    39    40   ar
    38    40    41   ar
    39    41    44    1
    40    44    45   ar
    41    45    46   ar
    42    46    47   ar
    43    47    48   ar
    44    48    49   ar
    45    41    42   ar
    46    42    43   ar
    47     4     5   ar
    48     9    10   ar
    49    10    11   ar
    50    21    22    1
    51    22    23    1
    52    19    14   ar
    53    11     6   ar
    54    23    16    1
    55     5     1   ar
    56    33    28   ar
    57    43    38   ar
    58    49    44   ar
    59    34    37    1
@<TRIPOS>MOLECULE
*****
 53 59 0 0 0
SMALL
GASTEIGER

@<TRIPOS>ATOM
      1 N          61.4423   87.0108    9.2653 N.ar    1  UNL1       -0.1285
      2 N          62.3015   85.8461    8.8715 N.ar    1  UNL1       -0.0406
      3 N          62.8698   85.2453   10.1230 N.ar    1  UNL1       -0.1074
      4 C          62.3619   86.0388   11.2902 C.ar    1  UNL1        0.2075
      5 N          61.4796   87.1300   10.7601 N.ar    1  UNL1       -0.1253
      6 C          59.1543   89.6792    6.4555 C.ar    1  UNL1       -0.0207
      7 C          60.0317   90.2805    7.5132 C.ar    1  UNL1       -0.0026
      8 C          60.7944   89.3909    8.4498 C.ar    1  UNL1        0.0206
      9 C          60.6796   87.9003    8.3287 C.ar    1  UNL1        0.1045
     10 C          59.8022   87.2990    7.2711 C.ar    1  UNL1        0.0206
     11 C          59.0396   88.1885    6.3345 C.ar    1  UNL1       -0.0026
     12 C          58.3917   90.5687    5.5189 C.3     1  UNL1        0.0437
     13 C          58.8933   91.9508    5.2218 C.3     1  UNL1        0.0771
     14 C          62.5858   93.4578   -0.3768 C.ar    1  UNL1        0.1721
     15 C          61.1127   93.2350   -0.2027 C.ar    1  UNL1        0.0356
     16 C          60.5578   92.9139    1.1535 C.ar    1  UNL1       -0.0202
     17 C          61.4761   92.8156    2.3355 C.ar    1  UNL1       -0.0068
     18 C          62.9492   93.0384    2.1613 C.ar    1  UNL1        0.0368
     19 C          63.5041   93.3595    0.8052 C.ar    1  UNL1        0.1721
     20 C          60.9213   92.4946    3.6916 C.3     1  UNL1        0.0990
     21 N          59.4482   92.2718    3.8657 N.3     1  UNL1       -0.2683
     22 C          58.5299   92.3701    2.6837 C.3     1  UNL1        0.0771
     23 C          59.0847   92.6912    1.3276 C.3     1  UNL1        0.0435
     24 C          62.5416   94.8888   -2.5448 C.3     1  UNL1        0.2526
     25 O          63.1407   93.7788   -1.7329 O.3     1  UNL1       -0.4684
     26 O          64.9772   93.5823    0.6311 O.3     1  UNL1       -0.4684
     27 C          65.4915   94.9417    0.2603 C.3     1  UNL1        0.2526
     28 C          62.6803   85.7856   12.7340 C.ar    1  UNL1        0.0560
     29 C          62.1558   84.5554   13.4131 C.ar    1  UNL1        0.0444
     30 C          62.4742   84.3022   14.8569 C.ar    1  UNL1        0.1726
     31 C          63.3172   85.2793   15.6215 C.ar    1  UNL1        0.1736
     32 C          63.8417   86.5095   14.9424 C.ar    1  UNL1        0.0548
     33 C          63.5233   86.7627   13.4986 C.ar    1  UNL1        0.0568
     34 N          64.0479   87.9931   12.8194 N.am    1  UNL1       -0.2802
     35 C          63.7900   89.3458   13.4142 C.2     1  UNL1        0.2495
     36 O          63.0076   89.4682   14.6880 O.2     1  UNL1       -0.2698
     37 H          64.5614   87.9127   11.9833 H       1  UNL1        0.1552
     38 C          64.3145   90.5761   12.7350 C.ar    1  UNL1        0.0537
     39 C          63.7985   90.9629   11.3808 C.ar    1  UNL1        0.0045
     40 C          64.3231   92.1932   10.7017 C.ar    1  UNL1        0.0002
     41 C          65.3636   93.0366   11.3769 C.ar    1  UNL1        0.0015
     42 C          65.8797   92.6497   12.7312 C.ar    1  UNL1        0.0002
     43 C          65.3551   91.4195   13.4102 C.ar    1  UNL1        0.0045
     44 C          65.8882   94.2670   10.6978 C.ar    1  UNL1        0.0192
     45 C          66.7554   94.1397    9.4805 C.ar    1  UNL1        0.0031
     46 C          67.2800   95.3700    8.8014 C.ar    1  UNL1        0.0207
     47 C          66.9374   96.7275    9.3396 C.ar    1  UNL1        0.0989
     48 N          66.0702   96.8548   10.5569 N.ar    1  UNL1       -0.2423
     49 C          65.5456   95.6245   11.2360 C.ar    1  UNL1        0.0988
     50 O          61.9496   83.0720   15.5360 O.3     1  UNL1       -0.4684
     51 C          61.8650   81.7777   14.7825 C.3     1  UNL1        0.2526
     52 O          63.6356   85.0261   17.0653 O.3     1  UNL1       -0.4683
     53 C          63.1458   85.9747   18.1189 C.3     1  UNL1        0.2526
@<TRIPOS>BOND
     1    24    25    1
     2    25    14    1
     3    14    15   ar
     4    15    16   ar
     5    16    17   ar
     6    17    18   ar
     7    18    19   ar
     8    19    26    1
     9    26    27    1
    10    17    20    1
    11    20    21    1
    12    21    13    1
    13    13    12    1
    14    12     6    1
    15     6     7   ar
    16     7     8   ar
    17     8     9   ar
    18     9     1    1
    19     1     2   ar
    20     2     3   ar
    21     3     4   ar
    22     4    28    1
    23    28    29   ar
    24    29    30   ar
    25    30    50    1
    26    50    51    1
    27    30    31   ar
    28    31    52    1
    29    52    53    1
    30    31    32   ar
    31    32    33   ar
    32    33    34    1
    33    34    35   am
    34    35    36    2
    35    35    38    1
    36    38    39   ar
    37    39    40   ar
    38    40    41   ar
    39    41    44    1
    40    44    45   ar
    41    45    46   ar
    42    46    47   ar
    43    47    48   ar
    44    48    49   ar
    45    41    42   ar
    46    42    43   ar
    47     4     5   ar
    48     9    10   ar
    49    10    11   ar
    50    21    22    1
    51    22    23    1
    52    19    14   ar
    53    11     6   ar
    54    23    16    1
    55     5     1   ar
    56    33    28   ar
    57    43    38   ar
    58    49    44   ar
    59    34    37    1
