@<TRIPOS>MOLECULE
*****
 29 32 0 0 0
SMALL
GASTEIGER

@<TRIPOS>ATOM
      1 C          61.3443   88.0502   10.1516 C.3     1  UNL1        0.0999
      2 C          62.5151   88.8609   10.6227 C.3     1  UNL1        0.1138
      3 N          62.3164   89.9436   11.6417 N.pl3   1  UNL1       -0.2763
      4 C          60.9468   90.2156   12.1896 C.3     1  UNL1        0.1107
      5 C          59.7759   89.4050   11.7185 C.3     1  UNL1        0.0906
      6 N          59.9747   88.3223   10.6995 N.3     1  UNL1       -0.2922
      7 H          59.3800   88.5539    9.9039 H       1  UNL1        0.1236
      8 C          63.4873   90.7542   12.1127 C.ar    1  UNL1        0.2035
      9 N          64.2334   91.6258   11.1465 N.ar    1  UNL1       -0.2148
     10 C          65.4042   92.4365   11.6176 C.ar    1  UNL1        0.0890
     11 C          65.8290   92.3755   13.0549 C.ar    1  UNL1        0.0800
     12 C          65.0829   91.5039   14.0212 C.ar    1  UNL1        0.2645
     13 O          65.5077   91.4429   15.4585 O.2     1  UNL1       -0.2668
     14 N          63.9120   90.6932   13.5501 N.ar    1  UNL1       -0.2667
     15 C          63.1659   89.8216   14.5163 C.3     1  UNL1        0.1363
     16 C          66.1504   93.3081   10.6513 C.ar    1  UNL1        0.0210
     17 C          65.7292   94.7332   10.4473 C.ar    1  UNL1        0.0222
     18 C          66.4753   95.6047    9.4811 C.ar    1  UNL1        0.0989
     19 N          67.6426   95.0512    8.7188 N.ar    1  UNL1       -0.2423
     20 C          68.0638   93.6261    8.9228 C.ar    1  UNL1        0.0989
     21 C          67.3177   92.7546    9.8891 C.ar    1  UNL1        0.0222
     22 C          60.4849   86.7033    8.1029 C.ar    1  UNL1        0.1360
     23 C          60.6837   85.6206    7.0840 C.ar    1  UNL1        0.0366
     24 C          61.9407   84.8022    7.0948 C.ar    1  UNL1        0.0031
     25 C          62.9988   85.0664    8.1245 C.ar    1  UNL1       -0.0001
     26 C          62.8000   86.1491    9.1435 C.ar    1  UNL1        0.0001
     27 C          61.5430   86.9675    9.1326 C.ar    1  UNL1        0.0277
     28 C          59.1343   88.7411    7.2235 C.3     1  UNL1        0.2525
     29 O          59.2279   87.5218    8.0921 O.3     1  UNL1       -0.4717
@<TRIPOS>BOND
     1    28    29    1
     2    29    22    1
     3    22    23   ar
     4    23    24   ar
     5    24    25   ar
     6    25    26   ar
     7    26    27   ar
     8    27     1    1
     9     1     2    1
    10     2     3    1
    11     3     8    1
    12     8     9   ar
    13     9    10   ar
    14    10    16    1
    15    16    17   ar
    16    17    18   ar
    17    18    19   ar
    18    19    20   ar
    19    20    21   ar
    20    10    11   ar
    21    11    12   ar
    22    12    13    2
    23    12    14   ar
    24    14    15    1
    25     3     4    1
    26     4     5    1
    27     5     6    1
    28    27    22   ar
    29     6     1    1
    30    14     8   ar
    31    21    16   ar
    32     6     7    1
@<TRIPOS>MOLECULE
*****
 29 32 0 0 0
SMALL
GASTEIGER

@<TRIPOS>ATOM
      1 C          62.1472   86.9897   11.4725 C.3     1  UNL1        0.0999
      2 C          63.1300   88.0362   11.9072 C.3     1  UNL1        0.1138
      3 N          62.6759   89.4502   12.1176 N.pl3   1  UNL1       -0.2763
      4 C          61.2389   89.8178   11.8932 C.3     1  UNL1        0.1107
      5 C          60.2562   88.7712   11.4586 C.3     1  UNL1        0.0906
      6 N          60.7103   87.3571   11.2482 N.3     1  UNL1       -0.2922
      7 H          60.4931   87.1190   10.2805 H       1  UNL1        0.1236
      8 C          63.6586   90.4968   12.5522 C.ar    1  UNL1        0.2035
      9 N          64.4002   91.3014   11.5264 N.ar    1  UNL1       -0.2148
     10 C          65.3830   92.3480   11.9610 C.ar    1  UNL1        0.0890
     11 C          65.6241   92.5899   13.4216 C.ar    1  UNL1        0.0800
     12 C          64.8825   91.7852   14.4476 C.ar    1  UNL1        0.2645
     13 O          65.1237   92.0270   15.9081 O.2     1  UNL1       -0.2668
     14 N          63.8997   90.7386   14.0129 N.ar    1  UNL1       -0.2667
     15 C          63.1581   89.9340   15.0388 C.3     1  UNL1        0.1363
     16 C          66.1246   93.1527   10.9350 C.ar    1  UNL1        0.0210
     17 C          67.2507   92.5301   10.1643 C.ar    1  UNL1        0.0222
     18 C          67.9923   93.3348    9.1383 C.ar    1  UNL1        0.0989
     19 N          67.6077   94.7620    8.8832 N.ar    1  UNL1       -0.2423
     20 C          66.4815   95.3846    9.6540 C.ar    1  UNL1        0.0989
     21 C          65.7400   94.5799   10.6799 C.ar    1  UNL1        0.0222
     22 C          62.6980   84.6375   12.4286 C.ar    1  UNL1        0.1360
     23 C          63.1521   83.2235   12.2183 C.ar    1  UNL1        0.0366
     24 C          63.5097   82.7476   10.8414 C.ar    1  UNL1        0.0031
     25 C          63.4131   83.6857    9.6750 C.ar    1  UNL1       -0.0001
     26 C          62.9589   85.0997    9.8854 C.ar    1  UNL1        0.0001
     27 C          62.6014   85.5756   11.2622 C.ar    1  UNL1        0.0277
     28 C          62.3247   84.1470   14.9525 C.3     1  UNL1        0.2525
     29 O          62.3404   85.1134   13.8055 O.3     1  UNL1       -0.4717
@<TRIPOS>BOND
     1    28    29    1
     2    29    22    1
     3    22    23   ar
     4    23    24   ar
     5    24    25   ar
     6    25    26   ar
     7    26    27   ar
     8    27     1    1
     9     1     2    1
    10     2     3    1
    11     3     8    1
    12     8     9   ar
    13     9    10   ar
    14    10    16    1
    15    16    17   ar
    16    17    18   ar
    17    18    19   ar
    18    19    20   ar
    19    20    21   ar
    20    10    11   ar
    21    11    12   ar
    22    12    13    2
    23    12    14   ar
    24    14    15    1
    25     3     4    1
    26     4     5    1
    27     5     6    1
    28    27    22   ar
    29     6     1    1
    30    14     8   ar
    31    21    16   ar
    32     6     7    1
@<TRIPOS>MOLECULE
*****
 29 32 0 0 0
SMALL
GASTEIGER

@<TRIPOS>ATOM
      1 C          62.1556   87.2249   11.5103 C.3     1  UNL1        0.0999
      2 C          63.1631   88.2487   11.9424 C.3     1  UNL1        0.1138
      3 N          62.7616   89.6882   12.0714 N.pl3   1  UNL1       -0.2763
      4 C          61.3525   90.1039   11.7684 C.3     1  UNL1        0.1107
      5 C          60.3449   89.0800   11.3364 C.3     1  UNL1        0.0906
      6 N          60.7465   87.6405   11.2073 N.3     1  UNL1       -0.2922
      7 H          60.5604   87.3682   10.2421 H       1  UNL1        0.1236
      8 C          63.7691   90.7120   12.5035 C.ar    1  UNL1        0.2035
      9 N          64.4949   91.5299   11.4767 N.ar    1  UNL1       -0.2148
     10 C          65.5024   92.5537   11.9088 C.ar    1  UNL1        0.0890
     11 C          65.7841   92.7597   13.3676 C.ar    1  UNL1        0.0800
     12 C          65.0582   91.9419   14.3944 C.ar    1  UNL1        0.2645
     13 O          65.3399   92.1479   15.8533 O.2     1  UNL1       -0.2668
     14 N          64.0507   90.9180   13.9624 N.ar    1  UNL1       -0.2667
     15 C          63.3249   90.1002   14.9891 C.3     1  UNL1        0.1363
     16 C          66.2282   93.3716   10.8819 C.ar    1  UNL1        0.0210
     17 C          65.8605   94.8107   10.6726 C.ar    1  UNL1        0.0222
     18 C          66.5863   95.6285    9.6458 C.ar    1  UNL1        0.0989
     19 N          67.6798   95.0072    8.8283 N.ar    1  UNL1       -0.2423
     20 C          68.0475   93.5681    9.0377 C.ar    1  UNL1        0.0989
     21 C          67.3217   92.7503   10.0645 C.ar    1  UNL1        0.0222
     22 C          62.7724   85.1856   10.0234 C.ar    1  UNL1        0.1360
     23 C          63.1740   83.7462    9.8944 C.ar    1  UNL1        0.0366
     24 C          63.3603   82.9065   11.1233 C.ar    1  UNL1        0.0031
     25 C          63.1451   83.5062   12.4812 C.ar    1  UNL1       -0.0001
     26 C          62.7435   84.9457   12.6102 C.ar    1  UNL1        0.0001
     27 C          62.5572   85.7854   11.3813 C.ar    1  UNL1        0.0277
     28 C          61.2818   85.9926    8.0545 C.3     1  UNL1        0.2525
     29 O          62.5861   86.0253    8.7945 O.3     1  UNL1       -0.4717
@<TRIPOS>BOND
     1    28    29    1
     2    29    22    1
     3    22    23   ar
     4    23    24   ar
     5    24    25   ar
     6    25    26   ar
     7    26    27   ar
     8    27     1    1
     9     1     2    1
    10     2     3    1
    11     3     8    1
    12     8     9   ar
    13     9    10   ar
    14    10    16    1
    15    16    17   ar
    16    17    18   ar
    17    18    19   ar
    18    19    20   ar
    19    20    21   ar
    20    10    11   ar
    21    11    12   ar
    22    12    13    2
    23    12    14   ar
    24    14    15    1
    25     3     4    1
    26     4     5    1
    27     5     6    1
    28    27    22   ar
    29     6     1    1
    30    14     8   ar
    31    21    16   ar
    32     6     7    1
@<TRIPOS>MOLECULE
*****
 29 32 0 0 0
SMALL
GASTEIGER

@<TRIPOS>ATOM
      1 C          62.6183   87.0463   11.7960 C.3     1  UNL1        0.0999
      2 C          63.1137   88.4187   12.1442 C.3     1  UNL1        0.1138
      3 N          63.9171   88.6317   13.3928 N.pl3   1  UNL1       -0.2763
      4 C          64.2250   87.4723   14.2935 C.3     1  UNL1        0.1107
      5 C          63.7296   86.1000   13.9453 C.3     1  UNL1        0.0906
      6 N          62.9262   85.8870   12.6966 N.3     1  UNL1       -0.2922
      7 H          62.0310   85.4931   12.9860 H       1  UNL1        0.1236
      8 C          64.4125   90.0041   13.7409 C.ar    1  UNL1        0.2035
      9 N          65.0776   90.8490   12.6952 N.ar    1  UNL1       -0.2148
     10 C          65.5730   92.2214   13.0433 C.ar    1  UNL1        0.0890
     11 C          65.4033   92.7488   14.4372 C.ar    1  UNL1        0.0800
     12 C          64.7382   91.9038   15.4830 C.ar    1  UNL1        0.2645
     13 O          64.5685   92.4313   16.8769 O.2     1  UNL1       -0.2668
     14 N          64.2428   90.5315   15.1349 N.ar    1  UNL1       -0.2667
     15 C          63.5777   89.6866   16.1807 C.3     1  UNL1        0.1363
     16 C          66.2381   93.0663   11.9974 C.ar    1  UNL1        0.0210
     17 C          67.0532   92.4191   10.9172 C.ar    1  UNL1        0.0222
     18 C          67.7183   93.2641    9.8715 C.ar    1  UNL1        0.0989
     19 N          67.5683   94.7562    9.9059 N.ar    1  UNL1       -0.2423
     20 C          66.7533   95.4033   10.9861 C.ar    1  UNL1        0.0989
     21 C          66.0882   94.5584   12.0318 C.ar    1  UNL1        0.0222
     22 C          60.4463   87.4347   10.4243 C.ar    1  UNL1        0.1360
     23 C          59.6430   87.2218    9.1756 C.ar    1  UNL1        0.0366
     24 C          60.2083   86.4074    8.0499 C.ar    1  UNL1        0.0031
     25 C          61.5769   85.8060    8.1729 C.ar    1  UNL1       -0.0001
     26 C          62.3802   86.0190    9.4216 C.ar    1  UNL1        0.0001
     27 C          61.8149   86.8334   10.5473 C.ar    1  UNL1        0.0277
     28 C          59.7796   89.7400   11.4200 C.3     1  UNL1        0.2525
     29 O          59.8810   88.2491   11.5500 O.3     1  UNL1       -0.4717
@<TRIPOS>BOND
     1    28    29    1
     2    29    22    1
     3    22    23   ar
     4    23    24   ar
     5    24    25   ar
     6    25    26   ar
     7    26    27   ar
     8    27     1    1
     9     1     2    1
    10     2     3    1
    11     3     8    1
    12     8     9   ar
    13     9    10   ar
    14    10    16    1
    15    16    17   ar
    16    17    18   ar
    17    18    19   ar
    18    19    20   ar
    19    20    21   ar
    20    10    11   ar
    21    11    12   ar
    22    12    13    2
    23    12    14   ar
    24    14    15    1
    25     3     4    1
    26     4     5    1
    27     5     6    1
    28    27    22   ar
    29     6     1    1
    30    14     8   ar
    31    21    16   ar
    32     6     7    1
@<TRIPOS>MOLECULE
*****
 29 32 0 0 0
SMALL
GASTEIGER

@<TRIPOS>ATOM
      1 C          65.5693   91.1462   14.0848 C.3     1  UNL1        0.0999
      2 C          65.2053   89.8424   14.7309 C.3     1  UNL1        0.1138
      3 N          64.1131   88.9956   14.1479 N.pl3   1  UNL1       -0.2763
      4 C          63.3849   89.4526   12.9187 C.3     1  UNL1        0.1107
      5 C          63.7489   90.7564   12.2725 C.3     1  UNL1        0.0906
      6 N          64.8412   91.6032   12.8556 N.3     1  UNL1       -0.2922
      7 H          64.4253   92.5075   13.0788 H       1  UNL1        0.1236
      8 C          63.7490   87.6918   14.7941 C.ar    1  UNL1        0.2035
      9 N          63.8643   86.4127   14.0192 N.ar    1  UNL1       -0.2148
     10 C          63.5003   85.1089   14.6654 C.ar    1  UNL1        0.0890
     11 C          63.0209   85.0842   16.0865 C.ar    1  UNL1        0.0800
     12 C          62.9056   86.3633   16.8615 C.ar    1  UNL1        0.2645
     13 O          62.4262   86.3386   18.2826 O.2     1  UNL1       -0.2668
     14 N          63.2696   87.6671   16.2153 N.ar    1  UNL1       -0.2667
     15 C          63.1543   88.9462   16.9902 C.3     1  UNL1        0.1363
     16 C          63.6156   83.8297   13.8904 C.ar    1  UNL1        0.0210
     17 C          64.2023   83.8395   12.5099 C.ar    1  UNL1        0.0222
     18 C          64.3176   82.5604   11.7350 C.ar    1  UNL1        0.0989
     19 N          63.8462   81.2715   12.3405 N.ar    1  UNL1       -0.2423
     20 C          63.2595   81.2618   13.7209 C.ar    1  UNL1        0.0989
     21 C          63.1442   82.5409   14.4959 C.ar    1  UNL1        0.0222
     22 C          66.7734   93.4396   14.2870 C.ar    1  UNL1        0.1360
     23 C          67.8657   94.2863   14.8700 C.ar    1  UNL1        0.0366
     24 C          68.8460   93.6866   15.8340 C.ar    1  UNL1        0.0031
     25 C          68.7342   92.2401   16.2148 C.ar    1  UNL1       -0.0001
     26 C          67.6420   91.3934   15.6318 C.ar    1  UNL1        0.0001
     27 C          66.6616   91.9931   14.6678 C.ar    1  UNL1        0.0277
     28 C          66.2630   94.5398   11.9894 C.3     1  UNL1        0.2525
     29 O          65.7931   94.0393   13.3230 O.3     1  UNL1       -0.4717
@<TRIPOS>BOND
     1    28    29    1
     2    29    22    1
     3    22    23   ar
     4    23    24   ar
     5    24    25   ar
     6    25    26   ar
     7    26    27   ar
     8    27     1    1
     9     1     2    1
    10     2     3    1
    11     3     8    1
    12     8     9   ar
    13     9    10   ar
    14    10    16    1
    15    16    17   ar
    16    17    18   ar
    17    18    19   ar
    18    19    20   ar
    19    20    21   ar
    20    10    11   ar
    21    11    12   ar
    22    12    13    2
    23    12    14   ar
    24    14    15    1
    25     3     4    1
    26     4     5    1
    27     5     6    1
    28    27    22   ar
    29     6     1    1
    30    14     8   ar
    31    21    16   ar
    32     6     7    1
@<TRIPOS>MOLECULE
*****
 29 32 0 0 0
SMALL
GASTEIGER

@<TRIPOS>ATOM
      1 C          62.7565   84.1461   11.0635 C.3     1  UNL1        0.0999
      2 C          62.4545   85.5433   11.5180 C.3     1  UNL1        0.1138
      3 N          62.4836   86.6749   10.5338 N.pl3   1  UNL1       -0.2763
      4 C          62.8148   86.4094    9.0951 C.3     1  UNL1        0.1107
      5 C          63.1169   85.0122    8.6406 C.3     1  UNL1        0.0906
      6 N          63.0877   83.8805    9.6248 N.3     1  UNL1       -0.2922
      7 H          64.0139   83.4534    9.6099 H       1  UNL1        0.1236
      8 C          62.1815   88.0722   10.9883 C.ar    1  UNL1        0.2035
      9 N          63.1903   88.8323   11.7973 N.ar    1  UNL1       -0.2148
     10 C          62.8883   90.2295   12.2518 C.ar    1  UNL1        0.0890
     11 C          61.5774   90.8666   11.8973 C.ar    1  UNL1        0.0800
     12 C          60.5685   90.1064   11.0883 C.ar    1  UNL1        0.2645
     13 O          59.2576   90.7435   10.7338 O.2     1  UNL1       -0.2668
     14 N          60.8706   88.7092   10.6338 N.ar    1  UNL1       -0.2667
     15 C          59.8618   87.9491    9.8248 C.3     1  UNL1        0.1363
     16 C          63.8972   90.9896   13.0608 C.ar    1  UNL1        0.0210
     17 C          64.8267   91.9542   12.3859 C.ar    1  UNL1        0.0222
     18 C          65.8355   92.7142   13.1949 C.ar    1  UNL1        0.0989
     19 N          65.9148   92.5097   14.6788 N.ar    1  UNL1       -0.2423
     20 C          64.9852   91.5452   15.3537 C.ar    1  UNL1        0.0989
     21 C          63.9764   90.7851   14.5447 C.ar    1  UNL1        0.0222
     22 C          62.6869   83.3014   13.5194 C.ar    1  UNL1        0.1360
     23 C          62.6578   82.1698   14.5035 C.ar    1  UNL1        0.0366
     24 C          62.6691   80.7513   14.0160 C.ar    1  UNL1        0.0031
     25 C          62.7096   80.4644   12.5442 C.ar    1  UNL1       -0.0001
     26 C          62.7388   81.5960   11.5601 C.ar    1  UNL1        0.0001
     27 C          62.7274   83.0145   12.0477 C.ar    1  UNL1        0.0277
     28 C          63.7566   85.2056   14.9264 C.3     1  UNL1        0.2525
     29 O          62.6756   84.7199   14.0070 O.3     1  UNL1       -0.4717
@<TRIPOS>BOND
     1    28    29    1
     2    29    22    1
     3    22    23   ar
     4    23    24   ar
     5    24    25   ar
     6    25    26   ar
     7    26    27   ar
     8    27     1    1
     9     1     2    1
    10     2     3    1
    11     3     8    1
    12     8     9   ar
    13     9    10   ar
    14    10    16    1
    15    16    17   ar
    16    17    18   ar
    17    18    19   ar
    18    19    20   ar
    19    20    21   ar
    20    10    11   ar
    21    11    12   ar
    22    12    13    2
    23    12    14   ar
    24    14    15    1
    25     3     4    1
    26     4     5    1
    27     5     6    1
    28    27    22   ar
    29     6     1    1
    30    14     8   ar
    31    21    16   ar
    32     6     7    1
@<TRIPOS>MOLECULE
*****
 29 32 0 0 0
SMALL
GASTEIGER

@<TRIPOS>ATOM
      1 C          63.5668   83.9721   13.9589 C.3     1  UNL1        0.0999
      2 C          63.0988   85.1396   13.1416 C.3     1  UNL1        0.1138
      3 N          63.6056   86.5185   13.4447 N.pl3   1  UNL1       -0.2763
      4 C          64.5804   86.7298   14.5652 C.3     1  UNL1        0.1107
      5 C          65.0483   85.5623   15.3824 C.3     1  UNL1        0.0906
      6 N          64.5415   84.1834   15.0792 N.3     1  UNL1       -0.2922
      7 H          64.0923   83.8414   15.9287 H       1  UNL1        0.1236
      8 C          63.1377   87.6860   12.6275 C.ar    1  UNL1        0.2035
      9 N          62.2271   87.4648   11.4563 N.ar    1  UNL1       -0.2148
     10 C          61.7591   88.6323   10.6390 C.ar    1  UNL1        0.0890
     11 C          62.2018   90.0211   10.9930 C.ar    1  UNL1        0.0800
     12 C          63.1124   90.2423   12.1643 C.ar    1  UNL1        0.2645
     13 O          63.5551   91.6311   12.5183 O.2     1  UNL1       -0.2668
     14 N          63.5804   89.0748   12.9815 N.ar    1  UNL1       -0.2667
     15 C          64.4910   89.2960   14.1528 C.3     1  UNL1        0.1363
     16 C          60.8485   88.4110    9.4677 C.ar    1  UNL1        0.0210
     17 C          60.3997   87.0231    9.1184 C.ar    1  UNL1        0.0222
     18 C          59.4891   86.8018    7.9472 C.ar    1  UNL1        0.0989
     19 N          59.0273   87.9686    7.1253 N.ar    1  UNL1       -0.2423
     20 C          59.4760   89.3565    7.4747 C.ar    1  UNL1        0.0989
     21 C          60.3866   89.5778    8.6459 C.ar    1  UNL1        0.0222
     22 C          63.6207   81.8264   12.4949 C.ar    1  UNL1        0.1360
     23 C          63.1139   80.4476   12.1918 C.ar    1  UNL1        0.0366
     24 C          62.0463   79.8355   13.0495 C.ar    1  UNL1        0.0031
     25 C          61.4856   80.6023   14.2103 C.ar    1  UNL1       -0.0001
     26 C          61.9924   81.9811   14.5134 C.ar    1  UNL1        0.0001
     27 C          63.0600   82.5932   13.6557 C.ar    1  UNL1        0.0277
     28 C          64.3382   83.0019   10.2918 C.3     1  UNL1        0.2525
     29 O          64.6883   82.4385   11.6372 O.3     1  UNL1       -0.4717
@<TRIPOS>BOND
     1    28    29    1
     2    29    22    1
     3    22    23   ar
     4    23    24   ar
     5    24    25   ar
     6    25    26   ar
     7    26    27   ar
     8    27     1    1
     9     1     2    1
    10     2     3    1
    11     3     8    1
    12     8     9   ar
    13     9    10   ar
    14    10    16    1
    15    16    17   ar
    16    17    18   ar
    17    18    19   ar
    18    19    20   ar
    19    20    21   ar
    20    10    11   ar
    21    11    12   ar
    22    12    13    2
    23    12    14   ar
    24    14    15    1
    25     3     4    1
    26     4     5    1
    27     5     6    1
    28    27    22   ar
    29     6     1    1
    30    14     8   ar
    31    21    16   ar
    32     6     7    1
@<TRIPOS>MOLECULE
*****
 29 32 0 0 0
SMALL
GASTEIGER

@<TRIPOS>ATOM
      1 C          62.7412   83.9460   11.0588 C.3     1  UNL1        0.0999
      2 C          62.4324   85.3619   11.4461 C.3     1  UNL1        0.1138
      3 N          62.5135   86.4544   10.4216 N.pl3   1  UNL1       -0.2763
      4 C          62.9033   86.1311    9.0096 C.3     1  UNL1        0.1107
      5 C          63.2120   84.7152    8.6223 C.3     1  UNL1        0.0906
      6 N          63.1309   83.6227    9.6469 N.3     1  UNL1       -0.2922
      7 H          64.0530   83.1886    9.6881 H       1  UNL1        0.1236
      8 C          62.2048   87.8703   10.8089 C.ar    1  UNL1        0.2035
      9 N          63.1433   88.6248   11.7031 N.ar    1  UNL1       -0.2148
     10 C          62.8346   90.0407   12.0904 C.ar    1  UNL1        0.0890
     11 C          61.5873   90.7020   11.5835 C.ar    1  UNL1        0.0800
     12 C          60.6487   89.9474   10.6893 C.ar    1  UNL1        0.2645
     13 O          59.4015   90.6087   10.1823 O.2     1  UNL1       -0.2668
     14 N          60.9574   88.5315   10.3019 N.ar    1  UNL1       -0.2667
     15 C          60.0189   87.7770    9.4077 C.3     1  UNL1        0.1363
     16 C          63.7732   90.7953   12.9847 C.ar    1  UNL1        0.0210
     17 C          63.7380   90.5726   14.4676 C.ar    1  UNL1        0.0222
     18 C          64.6766   91.3272   15.3618 C.ar    1  UNL1        0.0989
     19 N          65.6504   92.3044   14.7731 N.ar    1  UNL1       -0.2423
     20 C          65.6857   92.5271   13.2902 C.ar    1  UNL1        0.0989
     21 C          64.7471   91.7725   12.3960 C.ar    1  UNL1        0.0222
     22 C          62.8566   81.4242   11.6730 C.ar    1  UNL1        0.1360
     23 C          62.7755   80.3317   12.6977 C.ar    1  UNL1        0.0366
     24 C          62.4979   80.6686   14.1328 C.ar    1  UNL1        0.0031
     25 C          62.3014   82.0978   14.5432 C.ar    1  UNL1       -0.0001
     26 C          62.3825   83.1903   13.5186 C.ar    1  UNL1        0.0001
     27 C          62.6601   82.8535   12.0835 C.ar    1  UNL1        0.0277
     28 C          62.8472   79.7085    9.7221 C.3     1  UNL1        0.2525
     29 O          63.1342   81.0874   10.2379 O.3     1  UNL1       -0.4717
@<TRIPOS>BOND
     1    28    29    1
     2    29    22    1
     3    22    23   ar
     4    23    24   ar
     5    24    25   ar
     6    25    26   ar
     7    26    27   ar
     8    27     1    1
     9     1     2    1
    10     2     3    1
    11     3     8    1
    12     8     9   ar
    13     9    10   ar
    14    10    16    1
    15    16    17   ar
    16    17    18   ar
    17    18    19   ar
    18    19    20   ar
    19    20    21   ar
    20    10    11   ar
    21    11    12   ar
    22    12    13    2
    23    12    14   ar
    24    14    15    1
    25     3     4    1
    26     4     5    1
    27     5     6    1
    28    27    22   ar
    29     6     1    1
    30    14     8   ar
    31    21    16   ar
    32     6     7    1
@<TRIPOS>MOLECULE
*****
 29 32 0 0 0
SMALL
GASTEIGER

@<TRIPOS>ATOM
      1 C          61.5002   87.8942   10.4187 C.3     1  UNL1        0.0999
      2 C          62.6369   88.7526   10.8887 C.3     1  UNL1        0.1138
      3 N          62.3701   89.9261   11.7841 N.pl3   1  UNL1       -0.2763
      4 C          60.9665   90.2411   12.2095 C.3     1  UNL1        0.1107
      5 C          59.8298   89.3827   11.7394 C.3     1  UNL1        0.0906
      6 N          60.0967   88.2092   10.8440 N.3     1  UNL1       -0.2922
      7 H          59.5577   88.3608    9.9914 H       1  UNL1        0.1236
      8 C          63.5068   90.7845   12.2542 C.ar    1  UNL1        0.2035
      9 N          64.2619   91.6322   11.2737 N.ar    1  UNL1       -0.2148
     10 C          65.3986   92.4906   11.7438 C.ar    1  UNL1        0.0890
     11 C          65.7802   92.5015   13.1944 C.ar    1  UNL1        0.0800
     12 C          65.0251   91.6538   14.1750 C.ar    1  UNL1        0.2645
     13 O          65.4067   91.6647   15.6255 O.2     1  UNL1       -0.2668
     14 N          63.8884   90.7954   13.7049 N.ar    1  UNL1       -0.2667
     15 C          63.1333   89.9478   14.6854 C.3     1  UNL1        0.1363
     16 C          66.1536   93.3382   10.7633 C.ar    1  UNL1        0.0210
     17 C          67.3145   92.7598   10.0098 C.ar    1  UNL1        0.0222
     18 C          68.0695   93.6074    9.0293 C.ar    1  UNL1        0.0989
     19 N          67.6636   95.0335    8.8022 N.ar    1  UNL1       -0.2423
     20 C          66.5028   95.6120    9.5557 C.ar    1  UNL1        0.0989
     21 C          65.7478   94.7643   10.5362 C.ar    1  UNL1        0.0222
     22 C          62.5868   85.5678   10.0220 C.ar    1  UNL1        0.1360
     23 C          62.8536   84.3944    9.1266 C.ar    1  UNL1        0.0366
     24 C          62.3007   84.3739    7.7323 C.ar    1  UNL1        0.0031
     25 C          61.4809   85.5267    7.2336 C.ar    1  UNL1       -0.0001
     26 C          61.2141   86.7001    8.1290 C.ar    1  UNL1        0.0001
     27 C          61.7671   86.7207    9.5232 C.ar    1  UNL1        0.0277
     28 C          62.6973   84.5592   12.4137 C.3     1  UNL1        0.2525
     29 O          63.1398   85.5884   11.4162 O.3     1  UNL1       -0.4717
@<TRIPOS>BOND
     1    28    29    1
     2    29    22    1
     3    22    23   ar
     4    23    24   ar
     5    24    25   ar
     6    25    26   ar
     7    26    27   ar
     8    27     1    1
     9     1     2    1
    10     2     3    1
    11     3     8    1
    12     8     9   ar
    13     9    10   ar
    14    10    16    1
    15    16    17   ar
    16    17    18   ar
    17    18    19   ar
    18    19    20   ar
    19    20    21   ar
    20    10    11   ar
    21    11    12   ar
    22    12    13    2
    23    12    14   ar
    24    14    15    1
    25     3     4    1
    26     4     5    1
    27     5     6    1
    28    27    22   ar
    29     6     1    1
    30    14     8   ar
    31    21    16   ar
    32     6     7    1
