@<TRIPOS>MOLECULE
*****
 33 37 0 0 0
SMALL
GASTEIGER

@<TRIPOS>ATOM
      1 N          63.6456   86.5548   14.0704 N.pl3   1  UNL1       -0.2781
      2 C          64.4341   87.1330   15.2080 C.3     1  UNL1        0.0950
      3 C          64.7302   88.5676   14.8847 C.3     1  UNL1        0.0390
      4 C          64.1248   88.8759   13.5474 C.3     1  UNL1        0.0390
      5 C          63.4544   87.6319   13.0441 C.3     1  UNL1        0.0950
      6 C          64.8675   89.9412   14.2979 C.3     1  UNL1        0.0789
      7 C          62.1213   82.3302   13.7868 C.ar    1  UNL1        0.0937
      8 C          62.5271   83.0661   12.5443 C.ar    1  UNL1        0.1079
      9 N          63.0352   84.4744   12.6389 N.ar    1  UNL1       -0.2119
     10 C          63.1375   85.1466   13.9759 C.ar    1  UNL1        0.2202
     11 N          62.7317   84.4107   15.2184 N.ar    1  UNL1       -0.2119
     12 C          62.2237   83.0026   15.1239 C.ar    1  UNL1        0.1079
     13 O          62.4859   79.8470   13.1156 O.2     1  UNL1       -0.2680
     14 C          61.6133   80.9221   13.6923 C.2     1  UNL1        0.2708
     15 N          60.2325   80.5891   14.1746 N.am    1  UNL1       -0.1934
     16 O          59.7244   79.1809   14.0801 O.3     1  UNL1       -0.2949
     17 H          59.6598   81.2947   14.5532 H       1  UNL1        0.1825
     18 H          60.4081   78.6161   13.6870 H       1  UNL1        0.2414
     19 N          65.3756   91.3493   14.3925 N.3     1  UNL1       -0.1807
     20 H          66.1562   91.3373   15.0490 H       1  UNL1        0.1487
     21 S          65.8567   92.0574   13.1608 S.O2    1  UNL1        0.0602
     22 O          67.2762   91.7638   13.5465 O.2     1  UNL1       -0.1530
     23 O          64.4372   92.3509   12.7750 O.2     1  UNL1       -0.1530
     24 C          66.3379   92.7654   11.9290 C.ar    1  UNL1        0.1219
     25 C          67.3984   92.1413   11.0712 C.ar    1  UNL1        0.0199
     26 C          67.8796   92.8492    9.8394 C.ar    1  UNL1        0.0014
     27 C          67.3002   94.1814    9.4654 C.ar    1  UNL1        0.0001
     28 C          67.7814   94.8894    8.2337 C.ar    1  UNL1        0.0000
     29 C          67.2021   96.2215    7.8598 C.ar    1  UNL1        0.0000
     30 C          66.1416   96.8456    8.7176 C.ar    1  UNL1        0.0000
     31 C          65.6604   96.1376    9.9493 C.ar    1  UNL1        0.0000
     32 C          66.2397   94.8055   10.3232 C.ar    1  UNL1        0.0013
     33 C          65.7586   94.0975   11.5550 C.ar    1  UNL1        0.0199
@<TRIPOS>BOND
     1    13    14    2
     2    14    15   am
     3    15    16    1
     4    14     7    1
     5     7     8   ar
     6     8     9   ar
     7     9    10   ar
     8    10     1    1
     9     1     2    1
    10     3     2    1
    11     3     4    1
    12     4     5    1
    13     4     6    1
    14     6    19    1
    15    19    21    1
    16    21    22    2
    17    21    23    2
    18    21    24    1
    19    24    25   ar
    20    25    26   ar
    21    26    27   ar
    22    27    28   ar
    23    28    29   ar
    24    29    30   ar
    25    30    31   ar
    26    31    32   ar
    27    32    33   ar
    28    10    11   ar
    29    11    12   ar
    30    12     7   ar
    31     5     1    1
    32    33    24   ar
    33     6     3    1
    34    32    27   ar
    35    15    17    1
    36    16    18    1
    37    19    20    1
@<TRIPOS>MOLECULE
*****
 33 37 0 0 0
SMALL
GASTEIGER

@<TRIPOS>ATOM
      1 N          60.8526   87.1930    9.1302 N.pl3   1  UNL1       -0.2781
      2 C          60.0101   86.8101    7.9497 C.3     1  UNL1        0.0950
      3 C          59.4947   88.0702    7.3198 C.3     1  UNL1        0.0390
      4 C          60.0186   89.2318    8.1110 C.3     1  UNL1        0.0390
      5 C          60.8579   88.6897    9.2299 C.3     1  UNL1        0.0950
      6 C          59.1399   89.4715    6.9193 C.3     1  UNL1        0.0789
      7 C          62.9891   84.3506   11.8881 C.ar    1  UNL1        0.0937
      8 C          62.0542   85.3803   12.4499 C.ar    1  UNL1        0.1079
      9 N          61.3420   86.3278   11.5306 N.ar    1  UNL1       -0.2119
     10 C          61.5648   86.2455   10.0495 C.ar    1  UNL1        0.2202
     11 N          62.4997   85.2158    9.4877 N.ar    1  UNL1       -0.2119
     12 C          63.2119   84.2684   10.4070 C.ar    1  UNL1        0.1079
     13 O          64.6193   82.3591   12.2440 O.2     1  UNL1       -0.2680
     14 C          63.7013   83.4031   12.8073 C.2     1  UNL1        0.2708
     15 N          63.4955   83.4996   14.2900 N.am    1  UNL1       -0.1934
     16 O          64.2077   82.5521   15.2093 O.3     1  UNL1       -0.2949
     17 H          62.8930   84.1848   14.6597 H       1  UNL1        0.1825
     18 H          64.7568   81.9464   14.6873 H       1  UNL1        0.2414
     19 N          58.4277   90.4189    6.0000 N.3     1  UNL1       -0.1807
     20 H          57.9704   91.1139    6.5901 H       1  UNL1        0.1487
     21 S          59.1983   91.1748    4.9584 S.O2    1  UNL1        0.0602
     22 O          60.4411   90.4227    5.3321 O.2     1  UNL1       -0.1530
     23 O          57.9554   91.9269    4.5848 O.2     1  UNL1       -0.1530
     24 C          59.9689   91.9308    3.9169 C.ar    1  UNL1        0.1219
     25 C          59.2780   92.9606    3.0730 C.ar    1  UNL1        0.0199
     26 C          60.0485   93.7165    2.0315 C.ar    1  UNL1        0.0014
     27 C          61.5101   93.4426    1.8338 C.ar    1  UNL1        0.0001
     28 C          62.2806   94.1985    0.7923 C.ar    1  UNL1        0.0000
     29 C          63.7420   93.9247    0.5947 C.ar    1  UNL1        0.0000
     30 C          64.4330   92.8949    1.4386 C.ar    1  UNL1        0.0000
     31 C          63.6624   92.1390    2.4801 C.ar    1  UNL1        0.0000
     32 C          62.2010   92.4128    2.6777 C.ar    1  UNL1        0.0013
     33 C          61.4303   91.6569    3.7193 C.ar    1  UNL1        0.0199
@<TRIPOS>BOND
     1    13    14    2
     2    14    15   am
     3    15    16    1
     4    14     7    1
     5     7     8   ar
     6     8     9   ar
     7     9    10   ar
     8    10     1    1
     9     1     2    1
    10     3     2    1
    11     3     4    1
    12     4     5    1
    13     4     6    1
    14     6    19    1
    15    19    21    1
    16    21    22    2
    17    21    23    2
    18    21    24    1
    19    24    25   ar
    20    25    26   ar
    21    26    27   ar
    22    27    28   ar
    23    28    29   ar
    24    29    30   ar
    25    30    31   ar
    26    31    32   ar
    27    32    33   ar
    28    10    11   ar
    29    11    12   ar
    30    12     7   ar
    31     5     1    1
    32    33    24   ar
    33     6     3    1
    34    32    27   ar
    35    15    17    1
    36    16    18    1
    37    19    20    1
@<TRIPOS>MOLECULE
*****
 33 37 0 0 0
SMALL
GASTEIGER

@<TRIPOS>ATOM
      1 N          60.9760   92.2241    3.4901 N.pl3   1  UNL1       -0.2781
      2 C          59.5420   92.3304    3.9170 C.3     1  UNL1        0.0950
      3 C          59.2813   91.2612    4.9363 C.3     1  UNL1        0.0390
      4 C          60.5542   90.4941    5.1393 C.3     1  UNL1        0.0390
      5 C          61.6016   91.0892    4.2455 C.3     1  UNL1        0.0950
      6 C          59.3222   90.1199    5.9088 C.3     1  UNL1        0.0789
      7 C          63.0391   94.8491    0.4729 C.ar    1  UNL1        0.0937
      8 C          61.5574   94.9622    0.6768 C.ar    1  UNL1        0.1079
      9 N          60.8697   94.0872    1.6825 N.ar    1  UNL1       -0.2119
     10 C          61.6637   93.0991    2.4844 C.ar    1  UNL1        0.2202
     11 N          63.1455   92.9859    2.2805 N.ar    1  UNL1       -0.2119
     12 C          63.8332   93.8609    1.2748 C.ar    1  UNL1        0.1079
     13 O          62.9296   96.6969   -1.3501 O.2     1  UNL1       -0.2680
     14 C          63.7268   95.7240   -0.5328 C.2     1  UNL1        0.2708
     15 N          65.2117   95.6261   -0.7212 N.am    1  UNL1       -0.1934
     16 O          65.8995   96.5011   -1.7269 O.3     1  UNL1       -0.2949
     17 H          65.7349   94.9875   -0.1847 H       1  UNL1        0.1825
     18 H          65.2444   97.0666   -2.1651 H       1  UNL1        0.2414
     19 N          58.6345   89.2449    6.9145 N.3     1  UNL1       -0.1807
     20 H          58.0358   88.6073    6.3896 H       1  UNL1        0.1487
     21 S          59.4450   88.4027    7.8546 S.O2    1  UNL1        0.0602
     22 O          59.9732   89.6437    8.5110 O.2     1  UNL1       -0.1530
     23 O          58.9169   87.1617    7.1982 O.2     1  UNL1       -0.1530
     24 C          60.2556   87.5606    8.7947 C.ar    1  UNL1        0.1219
     25 C          60.1268   87.7549   10.2765 C.ar    1  UNL1        0.0199
     26 C          60.9373   86.9128   11.2166 C.ar    1  UNL1        0.0014
     27 C          61.8767   85.8763   10.6750 C.ar    1  UNL1        0.0001
     28 C          62.6872   85.0342   11.6151 C.ar    1  UNL1        0.0000
     29 C          63.6265   83.9977   11.0734 C.ar    1  UNL1        0.0000
     30 C          63.7553   83.8034    9.5917 C.ar    1  UNL1        0.0000
     31 C          62.9448   84.6455    8.6515 C.ar    1  UNL1        0.0000
     32 C          62.0055   85.6820    9.1932 C.ar    1  UNL1        0.0013
     33 C          61.1949   86.5241    8.2531 C.ar    1  UNL1        0.0199
@<TRIPOS>BOND
     1    13    14    2
     2    14    15   am
     3    15    16    1
     4    14     7    1
     5     7     8   ar
     6     8     9   ar
     7     9    10   ar
     8    10     1    1
     9     1     2    1
    10     3     2    1
    11     3     4    1
    12     4     5    1
    13     4     6    1
    14     6    19    1
    15    19    21    1
    16    21    22    2
    17    21    23    2
    18    21    24    1
    19    24    25   ar
    20    25    26   ar
    21    26    27   ar
    22    27    28   ar
    23    28    29   ar
    24    29    30   ar
    25    30    31   ar
    26    31    32   ar
    27    32    33   ar
    28    10    11   ar
    29    11    12   ar
    30    12     7   ar
    31     5     1    1
    32    33    24   ar
    33     6     3    1
    34    32    27   ar
    35    15    17    1
    36    16    18    1
    37    19    20    1
@<TRIPOS>MOLECULE
*****
 33 37 0 0 0
SMALL
GASTEIGER

@<TRIPOS>ATOM
      1 N          63.8020   85.8294   13.6645 N.pl3   1  UNL1       -0.2781
      2 C          64.4744   86.2849   14.9257 C.3     1  UNL1        0.0950
      3 C          64.5625   87.7819   14.8893 C.3     1  UNL1        0.0390
      4 C          63.9446   88.2516   13.6057 C.3     1  UNL1        0.0390
      5 C          63.4746   87.0449   12.8487 C.3     1  UNL1        0.0950
      6 C          64.5076   89.2477   14.5756 C.3     1  UNL1        0.0789
      7 C          62.9219   81.5651   12.5280 C.ar    1  UNL1        0.0937
      8 C          63.7658   82.4214   11.6311 C.ar    1  UNL1        0.1079
      9 N          64.0592   83.8429   12.0099 N.ar    1  UNL1       -0.2119
     10 C          63.5086   84.4080   13.2857 C.ar    1  UNL1        0.2202
     11 N          62.6647   83.5517   14.1826 N.ar    1  UNL1       -0.2119
     12 C          62.3713   82.1303   13.8038 C.ar    1  UNL1        0.1079
     13 O          62.0762   79.1941   13.1706 O.2     1  UNL1       -0.2680
     14 C          62.6285   80.1437   12.1493 C.2     1  UNL1        0.2708
     15 N          62.8873   79.6720   10.7491 N.am    1  UNL1       -0.1934
     16 O          62.5939   78.2505   10.3703 O.3     1  UNL1       -0.2949
     17 H          63.2498   80.2953   10.0788 H       1  UNL1        0.1825
     18 H          62.2452   77.7759   11.1410 H       1  UNL1        0.2414
     19 N          64.8010   90.6691   14.9545 N.3     1  UNL1       -0.1807
     20 H          65.4835   90.6371   15.7118 H       1  UNL1        0.1487
     21 S          65.3369   91.6233   13.9287 S.O2    1  UNL1        0.0602
     22 O          63.9811   91.6999   13.2916 O.2     1  UNL1       -0.1530
     23 O          66.6927   91.5467   14.5658 O.2     1  UNL1       -0.1530
     24 C          65.8728   92.5776   12.9029 C.ar    1  UNL1        0.1219
     25 C          65.7826   94.0567   13.1351 C.ar    1  UNL1        0.0199
     26 C          66.3185   95.0110   12.1093 C.ar    1  UNL1        0.0014
     27 C          66.9446   94.4861   10.8513 C.ar    1  UNL1        0.0001
     28 C          67.4805   95.4403    9.8255 C.ar    1  UNL1        0.0000
     29 C          68.1065   94.9154    8.5676 C.ar    1  UNL1        0.0000
     30 C          68.1967   93.4362    8.3354 C.ar    1  UNL1        0.0000
     31 C          67.6609   92.4820    9.3612 C.ar    1  UNL1        0.0000
     32 C          67.0348   93.0069   10.6191 C.ar    1  UNL1        0.0013
     33 C          66.4989   92.0527   11.6449 C.ar    1  UNL1        0.0199
@<TRIPOS>BOND
     1    13    14    2
     2    14    15   am
     3    15    16    1
     4    14     7    1
     5     7     8   ar
     6     8     9   ar
     7     9    10   ar
     8    10     1    1
     9     1     2    1
    10     3     2    1
    11     3     4    1
    12     4     5    1
    13     4     6    1
    14     6    19    1
    15    19    21    1
    16    21    22    2
    17    21    23    2
    18    21    24    1
    19    24    25   ar
    20    25    26   ar
    21    26    27   ar
    22    27    28   ar
    23    28    29   ar
    24    29    30   ar
    25    30    31   ar
    26    31    32   ar
    27    32    33   ar
    28    10    11   ar
    29    11    12   ar
    30    12     7   ar
    31     5     1    1
    32    33    24   ar
    33     6     3    1
    34    32    27   ar
    35    15    17    1
    36    16    18    1
    37    19    20    1
@<TRIPOS>MOLECULE
*****
 33 37 0 0 0
SMALL
GASTEIGER

@<TRIPOS>ATOM
      1 N          60.9139   87.3002    9.1531 N.pl3   1  UNL1       -0.2781
      2 C          60.1157   86.9542    7.9312 C.3     1  UNL1        0.0950
      3 C          59.6283   88.2337    7.3183 C.3     1  UNL1        0.0390
      4 C          60.1253   89.3704    8.1615 C.3     1  UNL1        0.0390
      5 C          60.9198   88.7934    9.2955 C.3     1  UNL1        0.0950
      6 C          59.2932   89.6472    6.9446 C.3     1  UNL1        0.0789
      7 C          62.9356   84.3723   11.9082 C.ar    1  UNL1        0.0937
      8 C          63.1951   84.3150   10.4319 C.ar    1  UNL1        0.1079
      9 N          62.5211   85.2910    9.5136 N.ar    1  UNL1       -0.2119
     10 C          61.5878   86.3242   10.0715 C.ar    1  UNL1        0.2202
     11 N          61.3284   86.3815   11.5478 N.ar    1  UNL1       -0.2119
     12 C          62.0022   85.4056   12.4661 C.ar    1  UNL1        0.1079
     13 O          64.4316   82.2773   12.2592 O.2     1  UNL1       -0.2680
     14 C          63.6095   83.3964   12.8266 C.2     1  UNL1        0.2708
     15 N          63.4613   83.5395   14.3123 N.am    1  UNL1       -0.1934
     16 O          64.1352   82.5636   15.2308 O.3     1  UNL1       -0.2949
     17 H          62.9218   84.2740   14.6847 H       1  UNL1        0.1825
     18 H          64.6220   81.9089   14.7060 H       1  UNL1        0.2414
     19 N          58.6192   90.6231    6.0263 N.3     1  UNL1       -0.1807
     20 H          58.2363   91.3639    6.6136 H       1  UNL1        0.1487
     21 S          59.4044   91.2949    4.9390 S.O2    1  UNL1        0.0602
     22 O          60.6119   90.4868    5.3117 O.2     1  UNL1       -0.1530
     23 O          58.1970   92.1030    4.5663 O.2     1  UNL1       -0.1530
     24 C          60.1897   91.9666    3.8516 C.ar    1  UNL1        0.1219
     25 C          61.6610   91.7066    3.7189 C.ar    1  UNL1        0.0199
     26 C          62.4462   92.3782    2.6317 C.ar    1  UNL1        0.0014
     27 C          61.7602   93.3100    1.6771 C.ar    1  UNL1        0.0001
     28 C          62.5454   93.9817    0.5898 C.ar    1  UNL1        0.0000
     29 C          61.8594   94.9134   -0.3647 C.ar    1  UNL1        0.0000
     30 C          60.3881   95.1735   -0.2320 C.ar    1  UNL1        0.0000
     31 C          59.6028   94.5018    0.8553 C.ar    1  UNL1        0.0000
     32 C          60.2889   93.5701    1.8098 C.ar    1  UNL1        0.0013
     33 C          59.5036   92.8983    2.8971 C.ar    1  UNL1        0.0199
@<TRIPOS>BOND
     1    13    14    2
     2    14    15   am
     3    15    16    1
     4    14     7    1
     5     7     8   ar
     6     8     9   ar
     7     9    10   ar
     8    10     1    1
     9     1     2    1
    10     3     2    1
    11     3     4    1
    12     4     5    1
    13     4     6    1
    14     6    19    1
    15    19    21    1
    16    21    22    2
    17    21    23    2
    18    21    24    1
    19    24    25   ar
    20    25    26   ar
    21    26    27   ar
    22    27    28   ar
    23    28    29   ar
    24    29    30   ar
    25    30    31   ar
    26    31    32   ar
    27    32    33   ar
    28    10    11   ar
    29    11    12   ar
    30    12     7   ar
    31     5     1    1
    32    33    24   ar
    33     6     3    1
    34    32    27   ar
    35    15    17    1
    36    16    18    1
    37    19    20    1
@<TRIPOS>MOLECULE
*****
 33 37 0 0 0
SMALL
GASTEIGER

@<TRIPOS>ATOM
      1 N          63.2404   83.7921   13.4500 N.pl3   1  UNL1       -0.2781
      2 C          63.0354   83.9546   14.9270 C.3     1  UNL1        0.0950
      3 C          63.2100   85.4063   15.2622 C.3     1  UNL1        0.0390
      4 C          63.5230   86.1408   13.9923 C.3     1  UNL1        0.0390
      5 C          63.5417   85.1431   12.8723 C.3     1  UNL1        0.0950
      6 C          63.4374   86.8887   15.2897 C.3     1  UNL1        0.0789
      7 C          62.9946   79.9289   11.1551 C.ar    1  UNL1        0.0937
      8 C          62.7284   79.9426   12.6313 C.ar    1  UNL1        0.1079
      9 N          62.8103   81.2304   13.3962 N.ar    1  UNL1       -0.2119
     10 C          63.1585   82.5043   12.6851 C.ar    1  UNL1        0.2202
     11 N          63.4247   82.4906   11.2089 N.ar    1  UNL1       -0.2119
     12 C          63.3427   81.2030   10.4440 C.ar    1  UNL1        0.1079
     13 O          63.0290   78.6486    8.8947 O.2     1  UNL1       -0.2680
     14 C          62.9127   78.6413   10.3902 C.2     1  UNL1        0.2708
     15 N          62.7144   77.3463   11.1207 N.am    1  UNL1       -0.1934
     16 O          62.6325   76.0586   10.3557 O.3     1  UNL1       -0.2949
     17 H          62.6381   77.3415   12.1022 H       1  UNL1        0.1825
     18 H          62.7255   76.2394    9.4073 H       1  UNL1        0.2414
     19 N          63.5194   88.1764   16.0547 N.3     1  UNL1       -0.1807
     20 H          64.0781   87.9892   16.8872 H       1  UNL1        0.1487
     21 S          64.1024   89.3975   15.4074 S.O2    1  UNL1        0.0602
     22 O          64.8944   88.5265   14.4777 O.2     1  UNL1       -0.1530
     23 O          63.3104   90.2684   16.3370 O.2     1  UNL1       -0.1530
     24 C          64.6855   90.6186   14.7600 C.ar    1  UNL1        0.1219
     25 C          65.4411   91.6169   15.5860 C.ar    1  UNL1        0.0199
     26 C          66.0242   92.8380   14.9387 C.ar    1  UNL1        0.0014
     27 C          65.8516   93.0607   13.4653 C.ar    1  UNL1        0.0001
     28 C          66.4347   94.2818   12.8181 C.ar    1  UNL1        0.0000
     29 C          66.2621   94.5044   11.3448 C.ar    1  UNL1        0.0000
     30 C          65.5065   93.5060   10.5188 C.ar    1  UNL1        0.0000
     31 C          64.9235   92.2850   11.1661 C.ar    1  UNL1        0.0000
     32 C          65.0960   92.0623   12.6393 C.ar    1  UNL1        0.0013
     33 C          64.5129   90.8412   13.2867 C.ar    1  UNL1        0.0199
@<TRIPOS>BOND
     1    13    14    2
     2    14    15   am
     3    15    16    1
     4    14     7    1
     5     7     8   ar
     6     8     9   ar
     7     9    10   ar
     8    10     1    1
     9     1     2    1
    10     3     2    1
    11     3     4    1
    12     4     5    1
    13     4     6    1
    14     6    19    1
    15    19    21    1
    16    21    22    2
    17    21    23    2
    18    21    24    1
    19    24    25   ar
    20    25    26   ar
    21    26    27   ar
    22    27    28   ar
    23    28    29   ar
    24    29    30   ar
    25    30    31   ar
    26    31    32   ar
    27    32    33   ar
    28    10    11   ar
    29    11    12   ar
    30    12     7   ar
    31     5     1    1
    32    33    24   ar
    33     6     3    1
    34    32    27   ar
    35    15    17    1
    36    16    18    1
    37    19    20    1
@<TRIPOS>MOLECULE
*****
 33 37 0 0 0
SMALL
GASTEIGER

@<TRIPOS>ATOM
      1 N          62.7607   85.3448   11.6685 N.pl3   1  UNL1       -0.2781
      2 C          62.1518   86.2263   10.6187 C.3     1  UNL1        0.0950
      3 C          62.3822   87.6530   11.0208 C.3     1  UNL1        0.0390
      4 C          63.1335   87.6531   12.3191 C.3     1  UNL1        0.0390
      5 C          63.3674   86.2265   12.7194 C.3     1  UNL1        0.0950
      6 C          62.7563   88.9521   11.6708 C.3     1  UNL1        0.0789
      7 C          62.7661   80.8447   11.6655 C.ar    1  UNL1        0.0937
      8 C          63.3588   81.5962   10.5105 C.ar    1  UNL1        0.1079
      9 N          63.3569   83.0962   10.5115 N.ar    1  UNL1       -0.2119
     10 C          62.7625   83.8447   11.6675 C.ar    1  UNL1        0.2202
     11 N          62.1699   83.0933   12.8225 N.ar    1  UNL1       -0.2119
     12 C          62.1716   81.5933   12.8215 C.ar    1  UNL1        0.1079
     13 O          62.7262   78.5938   12.9624 O.2     1  UNL1       -0.2680
     14 C          62.7679   79.3447   11.6645 C.2     1  UNL1        0.2708
     15 N          62.8114   78.5957   10.3657 N.am    1  UNL1       -0.1934
     16 O          62.8132   77.0956   10.3647 O.3     1  UNL1       -0.2949
     17 H          62.8387   79.0885    9.5139 H       1  UNL1        0.1825
     18 H          62.7836   76.7716   11.2785 H       1  UNL1        0.2414
     19 N          62.7544   90.4520   11.6718 N.3     1  UNL1       -0.1807
     20 H          61.8938   90.7452   12.1341 H       1  UNL1        0.1487
     21 S          63.8754   91.2029   12.3272 S.O2    1  UNL1        0.0602
     22 O          64.3361   91.6872   10.9843 O.2     1  UNL1       -0.1530
     23 O          63.4147   90.7187   13.6700 O.2     1  UNL1       -0.1530
     24 C          64.9964   91.9539   12.9825 C.ar    1  UNL1        0.1219
     25 C          65.3670   93.3236   12.4959 C.ar    1  UNL1        0.0199
     26 C          66.4879   94.0745   13.1512 C.ar    1  UNL1        0.0014
     27 C          67.2384   93.4558   14.2932 C.ar    1  UNL1        0.0001
     28 C          68.3594   94.2068   14.9485 C.ar    1  UNL1        0.0000
     29 C          69.1099   93.5881   16.0904 C.ar    1  UNL1        0.0000
     30 C          68.7393   92.2184   16.5770 C.ar    1  UNL1        0.0000
     31 C          67.6184   91.4675   15.9217 C.ar    1  UNL1        0.0000
     32 C          66.8679   92.0862   14.7798 C.ar    1  UNL1        0.0013
     33 C          65.7469   91.3352   14.1244 C.ar    1  UNL1        0.0199
@<TRIPOS>BOND
     1    13    14    2
     2    14    15   am
     3    15    16    1
     4    14     7    1
     5     7     8   ar
     6     8     9   ar
     7     9    10   ar
     8    10     1    1
     9     1     2    1
    10     3     2    1
    11     3     4    1
    12     4     5    1
    13     4     6    1
    14     6    19    1
    15    19    21    1
    16    21    22    2
    17    21    23    2
    18    21    24    1
    19    24    25   ar
    20    25    26   ar
    21    26    27   ar
    22    27    28   ar
    23    28    29   ar
    24    29    30   ar
    25    30    31   ar
    26    31    32   ar
    27    32    33   ar
    28    10    11   ar
    29    11    12   ar
    30    12     7   ar
    31     5     1    1
    32    33    24   ar
    33     6     3    1
    34    32    27   ar
    35    15    17    1
    36    16    18    1
    37    19    20    1
