@<TRIPOS>MOLECULE
*****
 33 35 0 0 0
SMALL
GASTEIGER

@<TRIPOS>ATOM
      1 S          63.9876   88.4790   13.7554 S.O2    1  UNL1        0.0633
      2 O          62.8855   88.6544   12.7531 O.2     1  UNL1       -0.1528
      3 O          65.0896   88.3036   14.7577 O.2     1  UNL1       -0.1528
      4 C          63.3987   87.7143   16.5959 C.3     1  UNL1        0.0206
      5 C          63.1861   86.7209   15.4923 C.3     1  UNL1        0.0956
      6 C          62.6790   85.3452   15.8090 C.3     1  UNL1        0.0900
      7 N          62.4664   84.3518   14.7054 N.3     1  UNL1       -0.2698
      8 C          62.7608   84.7341   13.2852 C.3     1  UNL1        0.0915
      9 C          63.2678   86.1098   12.9685 C.3     1  UNL1        0.1131
     10 N          63.4805   87.1032   14.0721 N.3     1  UNL1       -0.1541
     11 C          61.9593   82.9761   15.0221 C.3     1  UNL1        0.0807
     12 C          62.4235   81.8011   14.2135 C.3     1  UNL1        0.0833
     13 C          62.3800   80.5155   13.4420 C.3     1  UNL1        0.0105
     14 C          61.1229   81.0745   14.0393 C.3     1  UNL1        0.0105
     15 C          63.8854   82.1195   14.1068 C.2     1  UNL1        0.2198
     16 N          64.6523   82.5400   15.3254 N.am    1  UNL1       -0.3288
     17 O          64.5804   82.0175   12.7814 O.2     1  UNL1       -0.2753
     18 H          64.1961   82.6070   16.1953 H       1  UNL1        0.1449
     19 H          65.6118   82.7490   15.2553 H       1  UNL1        0.1449
     20 C          64.4946   89.8546   13.4386 C.ar    1  UNL1        0.1222
     21 C          63.9695   90.5904   12.2416 C.ar    1  UNL1        0.0197
     22 C          64.4765   91.9661   11.9248 C.ar    1  UNL1       -0.0004
     23 C          65.5087   92.6061   12.8052 C.ar    1  UNL1        0.0099
     24 C          66.0338   91.8704   14.0023 C.ar    1  UNL1       -0.0004
     25 C          65.5268   90.4947   14.3190 C.ar    1  UNL1        0.0197
     26 C          66.0157   93.9818   12.4884 C.3     1  UNL1        0.1945
     27 C          66.5228   95.3575   12.1716 C.3     1  UNL1        0.0428
     28 O          65.8578   94.3715   13.9283 O.3     1  UNL1       -0.3751
     29 H          65.5147   93.6167   14.4318 H       1  UNL1        0.2110
     30 C          66.1736   93.5921   11.0486 C.3     1  UNL1        0.4230
     31 F          66.3315   93.2023    9.6087 F       1  UNL1       -0.1673
     32 F          67.1901   92.4895   11.0803 F       1  UNL1       -0.1673
     33 F          65.1652   94.6313   10.6568 F       1  UNL1       -0.1673
@<TRIPOS>BOND
     1     5     4    1
     2     5     6    1
     3     6     7    1
     4     7    11    1
     5    11    12    1
     6    12    15    1
     7    15    16   am
     8    15    17    2
     9    12    13    1
    10    13    14    1
    11     7     8    1
    12     8     9    1
    13     9    10    1
    14    10     1    1
    15     1     2    2
    16     1     3    2
    17     1    20    1
    18    20    21   ar
    19    21    22   ar
    20    22    23   ar
    21    23    26    1
    22    26    27    1
    23    26    28    1
    24    26    30    1
    25    30    31    1
    26    30    32    1
    27    30    33    1
    28    23    24   ar
    29    24    25   ar
    30    10     5    1
    31    25    20   ar
    32    14    12    1
    33    16    18    1
    34    16    19    1
    35    28    29    1
@<TRIPOS>MOLECULE
*****
 33 35 0 0 0
SMALL
GASTEIGER

@<TRIPOS>ATOM
      1 S          45.6068   73.8263   17.7228 S.O2    1  UNL1        0.0633
      2 O          45.6429   74.7756   16.5619 O.2     1  UNL1       -0.1528
      3 O          45.5707   72.8771   18.8836 O.2     1  UNL1       -0.1528
      4 C          48.0236   74.6199   19.3133 C.3     1  UNL1        0.0206
      5 C          46.7418   75.3841   19.4650 C.3     1  UNL1        0.0956
      6 C          46.6683   76.5451   20.4120 C.3     1  UNL1        0.0900
      7 N          45.3866   77.3093   20.5637 N.3     1  UNL1       -0.2698
      8 C          44.1782   76.9125   19.7685 C.3     1  UNL1        0.0915
      9 C          44.2516   75.7516   18.8215 C.3     1  UNL1        0.1131
     10 N          45.5334   74.9874   18.6698 N.3     1  UNL1       -0.1541
     11 C          45.3132   78.4703   21.5107 C.3     1  UNL1        0.0807
     12 C          44.7410   79.7783   21.0507 C.3     1  UNL1        0.0833
     13 C          43.8600   80.9912   20.9993 C.3     1  UNL1        0.0105
     14 C          43.6530   79.9587   22.0673 C.3     1  UNL1        0.0105
     15 C          45.6304   80.0523   19.8742 C.2     1  UNL1        0.2198
     16 N          47.0755   80.3915   20.0894 N.am    1  UNL1       -0.3288
     17 O          45.0744   79.9870   18.4825 O.2     1  UNL1       -0.2753
     18 H          47.4404   80.4343   21.0028 H       1  UNL1        0.1449
     19 H          47.6592   80.5713   19.3172 H       1  UNL1        0.1449
     20 C          45.6802   72.6654   16.7758 C.ar    1  UNL1        0.1222
     21 C          45.9071   71.2799   17.3039 C.ar    1  UNL1        0.0197
     22 C          45.9805   70.1190   16.3568 C.ar    1  UNL1       -0.0004
     23 C          45.8270   70.3436   14.8817 C.ar    1  UNL1        0.0099
     24 C          45.6001   71.7291   14.3536 C.ar    1  UNL1       -0.0004
     25 C          45.5267   72.8900   15.3006 C.ar    1  UNL1        0.0197
     26 C          45.9003   69.1827   13.9347 C.3     1  UNL1        0.1945
     27 C          45.9737   68.0217   12.9876 C.3     1  UNL1        0.0428
     28 O          47.0195   68.5948   14.7420 O.3     1  UNL1       -0.3751
     29 H          47.2160   69.1759   15.4935 H       1  UNL1        0.2110
     30 C          44.7812   69.7705   13.1274 C.3     1  UNL1        0.4230
     31 F          43.6619   70.3583   12.3200 F       1  UNL1       -0.1673
     32 F          43.6572   69.9080   14.1112 F       1  UNL1       -0.1673
     33 F          45.6604   69.7754   11.9120 F       1  UNL1       -0.1673
@<TRIPOS>BOND
     1     5     4    1
     2     5     6    1
     3     6     7    1
     4     7    11    1
     5    11    12    1
     6    12    15    1
     7    15    16   am
     8    15    17    2
     9    12    13    1
    10    13    14    1
    11     7     8    1
    12     8     9    1
    13     9    10    1
    14    10     1    1
    15     1     2    2
    16     1     3    2
    17     1    20    1
    18    20    21   ar
    19    21    22   ar
    20    22    23   ar
    21    23    26    1
    22    26    27    1
    23    26    28    1
    24    26    30    1
    25    30    31    1
    26    30    32    1
    27    30    33    1
    28    23    24   ar
    29    24    25   ar
    30    10     5    1
    31    25    20   ar
    32    14    12    1
    33    16    18    1
    34    16    19    1
    35    28    29    1
@<TRIPOS>MOLECULE
*****
 33 35 0 0 0
SMALL
GASTEIGER

@<TRIPOS>ATOM
      1 S          63.7259   87.0602   14.3010 S.O2    1  UNL1        0.0633
      2 O          63.2170   87.3732   12.9251 O.2     1  UNL1       -0.1528
      3 O          64.2348   86.7472   15.6768 O.2     1  UNL1       -0.1528
      4 C          63.0456   88.4482   16.8721 C.3     1  UNL1        0.0206
      5 C          63.7505   89.1963   15.7796 C.3     1  UNL1        0.0956
      6 C          64.1152   90.6384   15.9727 C.3     1  UNL1        0.0900
      7 N          64.8201   91.3865   14.8802 N.3     1  UNL1       -0.2698
      8 C          65.1603   90.6926   13.5947 C.3     1  UNL1        0.0915
      9 C          64.7955   89.2505   13.4016 C.3     1  UNL1        0.1131
     10 N          64.0907   88.5024   14.4941 N.3     1  UNL1       -0.1541
     11 C          65.1848   92.8287   15.0734 C.3     1  UNL1        0.0807
     12 C          66.6212   93.2550   15.0023 C.3     1  UNL1        0.0833
     13 C          68.0410   93.5002   15.4194 C.3     1  UNL1        0.0105
     14 C          67.0725   92.8814   16.3831 C.3     1  UNL1        0.0105
     15 C          66.6688   93.7768   13.5968 C.2     1  UNL1        0.2198
     16 N          67.2164   92.9176   12.4960 N.am    1  UNL1       -0.3288
     17 O          66.1689   95.1578   13.2921 O.2     1  UNL1       -0.2753
     18 H          67.5446   92.0112   12.6960 H       1  UNL1        0.1449
     19 H          67.2477   93.2600   11.5735 H       1  UNL1        0.1449
     20 C          63.3612   85.6181   14.1078 C.ar    1  UNL1        0.1222
     21 C          63.0827   85.0929   12.7306 C.ar    1  UNL1        0.0197
     22 C          62.7179   83.6508   12.5375 C.ar    1  UNL1       -0.0004
     23 C          62.6318   82.7339   13.7215 C.ar    1  UNL1        0.0099
     24 C          62.9103   83.2591   15.0987 C.ar    1  UNL1       -0.0004
     25 C          63.2750   84.7012   15.2918 C.ar    1  UNL1        0.0197
     26 C          62.2671   81.2918   13.5284 C.3     1  UNL1        0.1945
     27 C          61.9023   79.8497   13.3351 C.3     1  UNL1        0.0428
     28 O          61.3450   81.3669   14.7091 O.3     1  UNL1       -0.3751
     29 H          61.3686   82.2623   15.0813 H       1  UNL1        0.2110
     30 C          63.1891   81.2168   12.3477 C.3     1  UNL1        0.4230
     31 F          64.1112   81.1417   11.1669 F       1  UNL1       -0.1673
     32 F          62.2720   81.3098   11.1643 F       1  UNL1       -0.1673
     33 F          64.3644   81.1022   13.2727 F       1  UNL1       -0.1673
@<TRIPOS>BOND
     1     5     4    1
     2     5     6    1
     3     6     7    1
     4     7    11    1
     5    11    12    1
     6    12    15    1
     7    15    16   am
     8    15    17    2
     9    12    13    1
    10    13    14    1
    11     7     8    1
    12     8     9    1
    13     9    10    1
    14    10     1    1
    15     1     2    2
    16     1     3    2
    17     1    20    1
    18    20    21   ar
    19    21    22   ar
    20    22    23   ar
    21    23    26    1
    22    26    27    1
    23    26    28    1
    24    26    30    1
    25    30    31    1
    26    30    32    1
    27    30    33    1
    28    23    24   ar
    29    24    25   ar
    30    10     5    1
    31    25    20   ar
    32    14    12    1
    33    16    18    1
    34    16    19    1
    35    28    29    1
@<TRIPOS>MOLECULE
*****
 33 35 0 0 0
SMALL
GASTEIGER

@<TRIPOS>ATOM
      1 S          72.6846   77.0008   13.2308 S.O2    1  UNL1        0.0633
      2 O          71.7427   77.6802   14.1800 O.2     1  UNL1       -0.1528
      3 O          73.6266   76.3213   12.2816 O.2     1  UNL1       -0.1528
      4 C          71.4188   74.3877   12.4761 C.3     1  UNL1        0.0206
      5 C          72.1422   74.5207   13.7833 C.3     1  UNL1        0.0956
      6 C          72.2327   73.3472   14.7132 C.3     1  UNL1        0.0900
      7 N          72.9562   73.4803   16.0205 N.3     1  UNL1       -0.2698
      8 C          73.5891   74.7867   16.3978 C.3     1  UNL1        0.0915
      9 C          73.4986   75.9602   15.4680 C.3     1  UNL1        0.1131
     10 N          72.7751   75.8272   14.1607 N.3     1  UNL1       -0.1541
     11 C          73.0467   72.3067   16.9504 C.3     1  UNL1        0.0807
     12 C          71.8085   71.7743   17.6088 C.3     1  UNL1        0.0833
     13 C          70.7193   70.8202   18.0001 C.3     1  UNL1        0.0105
     14 C          71.8072   70.3751   17.0684 C.3     1  UNL1        0.0105
     15 C          71.3798   72.9887   18.3779 C.2     1  UNL1        0.2198
     16 N          72.0530   73.3321   19.6736 N.am    1  UNL1       -0.3288
     17 O          70.2779   73.8596   17.8513 O.2     1  UNL1       -0.2753
     18 H          72.7763   72.7605   20.0192 H       1  UNL1        0.1449
     19 H          71.7717   74.1292   20.1784 H       1  UNL1        0.1449
     20 C          72.5941   78.1743   12.3010 C.ar    1  UNL1        0.1222
     21 C          72.1810   79.5172   12.8262 C.ar    1  UNL1        0.0197
     22 C          72.0905   80.6908   11.8963 C.ar    1  UNL1       -0.0004
     23 C          72.4130   80.5214   10.4413 C.ar    1  UNL1        0.0099
     24 C          72.8261   79.1784    9.9160 C.ar    1  UNL1       -0.0004
     25 C          72.9167   78.0049   10.8459 C.ar    1  UNL1        0.0197
     26 C          72.3225   81.6949    9.5115 C.3     1  UNL1        0.1945
     27 C          72.2320   82.8684    8.5815 C.3     1  UNL1        0.0428
     28 O          72.4395   82.6291   10.6791 O.3     1  UNL1       -0.3751
     29 H          72.5199   82.1150   11.4977 H       1  UNL1        0.2110
     30 C          72.2055   80.7607    8.3438 C.3     1  UNL1        0.4230
     31 F          72.0885   79.8264    7.1760 F       1  UNL1       -0.1673
     32 F          73.6281   80.4723    7.9657 F       1  UNL1       -0.1673
     33 F          70.7101   80.8249    8.4422 F       1  UNL1       -0.1673
@<TRIPOS>BOND
     1     5     4    1
     2     5     6    1
     3     6     7    1
     4     7    11    1
     5    11    12    1
     6    12    15    1
     7    15    16   am
     8    15    17    2
     9    12    13    1
    10    13    14    1
    11     7     8    1
    12     8     9    1
    13     9    10    1
    14    10     1    1
    15     1     2    2
    16     1     3    2
    17     1    20    1
    18    20    21   ar
    19    21    22   ar
    20    22    23   ar
    21    23    26    1
    22    26    27    1
    23    26    28    1
    24    26    30    1
    25    30    31    1
    26    30    32    1
    27    30    33    1
    28    23    24   ar
    29    24    25   ar
    30    10     5    1
    31    25    20   ar
    32    14    12    1
    33    16    18    1
    34    16    19    1
    35    28    29    1
@<TRIPOS>MOLECULE
*****
 33 35 0 0 0
SMALL
GASTEIGER

@<TRIPOS>ATOM
      1 S          63.4847   86.7919   13.4938 S.O2    1  UNL1        0.0633
      2 O          63.0801   86.8608   12.0511 O.2     1  UNL1       -0.1528
      3 O          63.8892   86.7230   14.9366 O.2     1  UNL1       -0.1528
      4 C          62.4137   88.5575   11.3176 C.3     1  UNL1        0.0206
      5 C          63.3128   89.1296   12.3733 C.3     1  UNL1        0.0956
      6 C          63.6764   90.5845   12.3408 C.3     1  UNL1        0.0900
      7 N          64.5755   91.1566   13.3964 N.3     1  UNL1       -0.2698
      8 C          65.1110   90.2738   14.4845 C.3     1  UNL1        0.0915
      9 C          64.7474   88.8190   14.5170 C.3     1  UNL1        0.1131
     10 N          63.8483   88.2469   13.4613 N.3     1  UNL1       -0.1541
     11 C          64.9391   92.6116   13.3639 C.3     1  UNL1        0.0807
     12 C          66.1316   93.0692   12.5776 C.3     1  UNL1        0.0833
     13 C          66.9487   93.6012   11.4377 C.3     1  UNL1        0.0105
     14 C          65.4649   93.4422   11.2867 C.3     1  UNL1        0.0105
     15 C          67.2126   92.8551   13.5953 C.2     1  UNL1        0.2198
     16 N          68.3090   91.8670   13.3283 N.am    1  UNL1       -0.3288
     17 O          67.1970   93.6292   14.8801 O.2     1  UNL1       -0.2753
     18 H          68.3192   91.3589   12.4850 H       1  UNL1        0.1449
     19 H          69.0185   91.7265   13.9962 H       1  UNL1        0.1449
     20 C          63.1211   85.3370   13.5263 C.ar    1  UNL1        0.1222
     21 C          63.0003   84.6233   14.8400 C.ar    1  UNL1        0.0197
     22 C          62.6367   83.1683   14.8724 C.ar    1  UNL1       -0.0004
     23 C          62.3939   82.4272   13.5911 C.ar    1  UNL1        0.0099
     24 C          62.5147   83.1410   12.2774 C.ar    1  UNL1       -0.0004
     25 C          62.8783   84.5959   12.2449 C.ar    1  UNL1        0.0197
     26 C          62.0303   80.9723   13.6236 C.3     1  UNL1        0.1945
     27 C          61.6667   79.5174   13.6560 C.3     1  UNL1        0.0428
     28 O          61.0302   81.2464   14.7073 O.3     1  UNL1       -0.3751
     29 H          61.0363   82.1926   14.9212 H       1  UNL1        0.2110
     30 C          63.0304   80.6982   12.5398 C.3     1  UNL1        0.4230
     31 F          64.0306   80.4241   11.4560 F       1  UNL1       -0.1673
     32 F          62.1948   80.5556   11.3023 F       1  UNL1       -0.1673
     33 F          64.1412   80.7769   13.5449 F       1  UNL1       -0.1673
@<TRIPOS>BOND
     1     5     4    1
     2     5     6    1
     3     6     7    1
     4     7    11    1
     5    11    12    1
     6    12    15    1
     7    15    16   am
     8    15    17    2
     9    12    13    1
    10    13    14    1
    11     7     8    1
    12     8     9    1
    13     9    10    1
    14    10     1    1
    15     1     2    2
    16     1     3    2
    17     1    20    1
    18    20    21   ar
    19    21    22   ar
    20    22    23   ar
    21    23    26    1
    22    26    27    1
    23    26    28    1
    24    26    30    1
    25    30    31    1
    26    30    32    1
    27    30    33    1
    28    23    24   ar
    29    24    25   ar
    30    10     5    1
    31    25    20   ar
    32    14    12    1
    33    16    18    1
    34    16    19    1
    35    28    29    1
@<TRIPOS>MOLECULE
*****
 33 35 0 0 0
SMALL
GASTEIGER

@<TRIPOS>ATOM
      1 S          63.6597   86.4459   13.2878 S.O2    1  UNL1        0.0633
      2 O          64.5856   86.0711   14.4068 O.2     1  UNL1       -0.1528
      3 O          62.7338   86.8207   12.1688 O.2     1  UNL1       -0.1528
      4 C          62.7449   88.5289   11.3322 C.3     1  UNL1        0.0206
      5 C          63.4531   88.9398   12.5891 C.3     1  UNL1        0.0956
      6 C          63.7038   90.3920   12.8682 C.3     1  UNL1        0.0900
      7 N          64.4120   90.8028   14.1251 N.3     1  UNL1       -0.2698
      8 C          64.8694   89.7614   15.1028 C.3     1  UNL1        0.0915
      9 C          64.6187   88.3091   14.8237 C.3     1  UNL1        0.1131
     10 N          63.9105   87.8983   13.5669 N.3     1  UNL1       -0.1541
     11 C          64.6628   92.2552   14.4042 C.3     1  UNL1        0.0807
     12 C          66.0681   92.7596   14.5476 C.3     1  UNL1        0.0833
     13 C          67.3345   93.2396   15.1925 C.3     1  UNL1        0.0105
     14 C          66.1561   92.8644   16.0413 C.3     1  UNL1        0.0105
     15 C          66.4682   92.8300   13.1036 C.2     1  UNL1        0.2198
     16 N          65.5108   93.3751   12.0858 N.am    1  UNL1       -0.3288
     17 O          67.8259   92.3553   12.6776 O.2     1  UNL1       -0.2753
     18 H          64.6197   93.6867   12.3654 H       1  UNL1        0.1449
     19 H          65.7734   93.4213   11.1381 H       1  UNL1        0.1449
     20 C          63.4090   84.9936   13.0087 C.ar    1  UNL1        0.1222
     21 C          62.7676   84.5777   11.7182 C.ar    1  UNL1        0.0197
     22 C          62.5169   83.1253   11.4392 C.ar    1  UNL1       -0.0004
     23 C          62.9076   82.0889   12.4507 C.ar    1  UNL1        0.0099
     24 C          63.5490   82.5049   13.7413 C.ar    1  UNL1       -0.0004
     25 C          63.7997   83.9572   14.0203 C.ar    1  UNL1        0.0197
     26 C          62.6569   80.6366   12.1717 C.3     1  UNL1        0.1945
     27 C          62.4062   79.1842   11.8927 C.3     1  UNL1        0.0428
     28 O          63.3409   80.7736   10.8438 O.3     1  UNL1       -0.3751
     29 H          63.6413   81.6886   10.7277 H       1  UNL1        0.2110
     30 C          61.9729   80.4996   13.4995 C.3     1  UNL1        0.4230
     31 F          61.2887   80.3625   14.8274 F       1  UNL1       -0.1673
     32 F          60.6976   81.2714   13.3323 F       1  UNL1       -0.1673
     33 F          63.1166   79.6699   14.0032 F       1  UNL1       -0.1673
@<TRIPOS>BOND
     1     5     4    1
     2     5     6    1
     3     6     7    1
     4     7    11    1
     5    11    12    1
     6    12    15    1
     7    15    16   am
     8    15    17    2
     9    12    13    1
    10    13    14    1
    11     7     8    1
    12     8     9    1
    13     9    10    1
    14    10     1    1
    15     1     2    2
    16     1     3    2
    17     1    20    1
    18    20    21   ar
    19    21    22   ar
    20    22    23   ar
    21    23    26    1
    22    26    27    1
    23    26    28    1
    24    26    30    1
    25    30    31    1
    26    30    32    1
    27    30    33    1
    28    23    24   ar
    29    24    25   ar
    30    10     5    1
    31    25    20   ar
    32    14    12    1
    33    16    18    1
    34    16    19    1
    35    28    29    1
@<TRIPOS>MOLECULE
*****
 33 35 0 0 0
SMALL
GASTEIGER

@<TRIPOS>ATOM
      1 S          63.5247   86.3218   13.2886 S.O2    1  UNL1        0.0633
      2 O          64.5193   85.9050   14.3312 O.2     1  UNL1       -0.1528
      3 O          62.5300   86.7385   12.2461 O.2     1  UNL1       -0.1528
      4 C          63.7215   87.0980   16.1798 C.3     1  UNL1        0.0206
      5 C          63.8285   88.1467   15.1127 C.3     1  UNL1        0.0956
      6 C          64.0338   89.5836   15.4912 C.3     1  UNL1        0.0900
      7 N          64.1408   90.6323   14.4241 N.3     1  UNL1       -0.2698
      8 C          64.0425   90.2442   12.9786 C.3     1  UNL1        0.0915
      9 C          63.8371   88.8074   12.6001 C.3     1  UNL1        0.1131
     10 N          63.7301   87.7587   13.6672 N.3     1  UNL1       -0.1541
     11 C          64.3462   92.0692   14.8027 C.3     1  UNL1        0.0807
     12 C          65.7110   92.5544   15.1925 C.3     1  UNL1        0.0833
     13 C          66.8684   92.9639   16.0542 C.3     1  UNL1        0.0105
     14 C          65.5881   92.5053   16.6866 C.3     1  UNL1        0.0105
     15 C          66.3081   92.7720   13.8337 C.2     1  UNL1        0.2198
     16 N          67.7230   92.3557   13.5608 N.am    1  UNL1       -0.3288
     17 O          65.4901   93.4059   12.7479 O.2     1  UNL1       -0.2753
     18 H          68.2599   91.9396   14.2735 H       1  UNL1        0.1449
     19 H          68.1149   92.4985   12.6690 H       1  UNL1        0.1449
     20 C          63.3193   84.8849   12.9102 C.ar    1  UNL1        0.1222
     21 C          63.7938   83.7936   13.8234 C.ar    1  UNL1        0.0197
     22 C          63.5884   82.3567   13.4448 C.ar    1  UNL1       -0.0004
     23 C          62.9086   82.0112   12.1531 C.ar    1  UNL1        0.0099
     24 C          62.4342   83.1025   11.2399 C.ar    1  UNL1       -0.0004
     25 C          62.6395   84.5394   11.6184 C.ar    1  UNL1        0.0197
     26 C          62.7033   80.5744   11.7746 C.3     1  UNL1        0.1945
     27 C          62.4979   79.1375   11.3962 C.3     1  UNL1        0.0428
     28 O          63.2326   80.8606   10.4007 O.3     1  UNL1       -0.3751
     29 H          63.4719   81.7984   10.3353 H       1  UNL1        0.2110
     30 C          62.1739   80.2881   13.1486 C.3     1  UNL1        0.4230
     31 F          61.6446   80.0018   14.5226 F       1  UNL1       -0.1673
     32 F          63.0943   79.2289   13.6788 F       1  UNL1       -0.1673
     33 F          61.0933   81.3083   12.9449 F       1  UNL1       -0.1673
@<TRIPOS>BOND
     1     5     4    1
     2     5     6    1
     3     6     7    1
     4     7    11    1
     5    11    12    1
     6    12    15    1
     7    15    16   am
     8    15    17    2
     9    12    13    1
    10    13    14    1
    11     7     8    1
    12     8     9    1
    13     9    10    1
    14    10     1    1
    15     1     2    2
    16     1     3    2
    17     1    20    1
    18    20    21   ar
    19    21    22   ar
    20    22    23   ar
    21    23    26    1
    22    26    27    1
    23    26    28    1
    24    26    30    1
    25    30    31    1
    26    30    32    1
    27    30    33    1
    28    23    24   ar
    29    24    25   ar
    30    10     5    1
    31    25    20   ar
    32    14    12    1
    33    16    18    1
    34    16    19    1
    35    28    29    1
@<TRIPOS>MOLECULE
*****
 33 35 0 0 0
SMALL
GASTEIGER

@<TRIPOS>ATOM
      1 S          45.1063   74.7909   17.1054 S.O2    1  UNL1        0.0633
      2 O          43.6649   74.5959   17.4716 O.2     1  UNL1       -0.1528
      3 O          46.5478   74.9859   16.7393 O.2     1  UNL1       -0.1528
      4 C          46.8935   74.8538   19.5142 C.3     1  UNL1        0.0206
      5 C          46.0531   76.0484   19.1724 C.3     1  UNL1        0.0956
      6 C          46.1063   77.2744   20.0350 C.3     1  UNL1        0.0900
      7 N          45.2659   78.4689   19.6932 N.3     1  UNL1       -0.2698
      8 C          44.3724   78.4375   18.4888 C.3     1  UNL1        0.0915
      9 C          44.3192   77.2115   17.6263 C.3     1  UNL1        0.1131
     10 N          45.1596   76.0170   17.9681 N.3     1  UNL1       -0.1541
     11 C          45.3192   79.6950   20.5558 C.3     1  UNL1        0.0807
     12 C          44.9502   81.0314   19.9833 C.3     1  UNL1        0.0833
     13 C          44.1683   82.2835   19.7169 C.3     1  UNL1        0.0105
     14 C          43.6331   81.2527   20.6660 C.3     1  UNL1        0.0105
     15 C          46.1392   81.2743   19.1016 C.2     1  UNL1        0.2198
     16 N          47.5200   80.9744   19.6051 N.am    1  UNL1       -0.3288
     17 O          45.9474   81.8172   17.7165 O.2     1  UNL1       -0.2753
     18 H          47.6458   80.6181   20.5142 H       1  UNL1        0.1449
     19 H          48.3004   81.1338   19.0265 H       1  UNL1        0.1449
     20 C          45.0531   73.5649   16.2428 C.ar    1  UNL1        0.1222
     21 C          46.0743   73.3627   15.1630 C.ar    1  UNL1        0.0197
     22 C          46.0210   72.1366   14.3004 C.ar    1  UNL1       -0.0004
     23 C          44.9465   71.1129   14.5177 C.ar    1  UNL1        0.0099
     24 C          43.9252   71.3151   15.5975 C.ar    1  UNL1       -0.0004
     25 C          43.9785   72.5411   16.4601 C.ar    1  UNL1        0.0197
     26 C          44.8932   69.8869   13.6551 C.3     1  UNL1        0.1945
     27 C          44.8400   68.6608   12.7925 C.3     1  UNL1        0.0428
     28 O          43.6869   70.4343   12.9516 O.3     1  UNL1       -0.3751
     29 H          43.4593   71.2998   13.3258 H       1  UNL1        0.2110
     30 C          46.0996   69.3395   14.3586 C.3     1  UNL1        0.4230
     31 F          47.3060   68.7921   15.0622 F       1  UNL1       -0.1673
     32 F          45.6675   69.2335   15.7911 F       1  UNL1       -0.1673
     33 F          46.8459   69.3122   13.0577 F       1  UNL1       -0.1673
@<TRIPOS>BOND
     1     5     4    1
     2     5     6    1
     3     6     7    1
     4     7    11    1
     5    11    12    1
     6    12    15    1
     7    15    16   am
     8    15    17    2
     9    12    13    1
    10    13    14    1
    11     7     8    1
    12     8     9    1
    13     9    10    1
    14    10     1    1
    15     1     2    2
    16     1     3    2
    17     1    20    1
    18    20    21   ar
    19    21    22   ar
    20    22    23   ar
    21    23    26    1
    22    26    27    1
    23    26    28    1
    24    26    30    1
    25    30    31    1
    26    30    32    1
    27    30    33    1
    28    23    24   ar
    29    24    25   ar
    30    10     5    1
    31    25    20   ar
    32    14    12    1
    33    16    18    1
    34    16    19    1
    35    28    29    1
@<TRIPOS>MOLECULE
*****
 33 35 0 0 0
SMALL
GASTEIGER

@<TRIPOS>ATOM
      1 S          45.6755   74.8200   18.3647 S.O2    1  UNL1        0.0633
      2 O          44.2310   74.9755   17.9918 O.2     1  UNL1       -0.1528
      3 O          47.1201   74.6646   18.7377 O.2     1  UNL1       -0.1528
      4 C          45.1272   75.3457   21.2670 C.3     1  UNL1        0.0206
      5 C          45.4173   76.4884   20.3396 C.3     1  UNL1        0.0956
      6 C          45.4333   77.8939   20.8633 C.3     1  UNL1        0.0900
      7 N          45.7234   79.0366   19.9359 N.3     1  UNL1       -0.2698
      8 C          45.9976   78.7738   18.4848 C.3     1  UNL1        0.0915
      9 C          45.9816   77.3683   17.9611 C.3     1  UNL1        0.1131
     10 N          45.6915   76.2256   18.8885 N.3     1  UNL1       -0.1541
     11 C          45.7394   80.4421   20.4596 C.3     1  UNL1        0.0807
     12 C          44.9506   81.5111   19.7630 C.3     1  UNL1        0.0833
     13 C          43.7994   82.3993   19.3944 C.3     1  UNL1        0.0105
     14 C          43.6334   81.3621   20.4651 C.3     1  UNL1        0.0105
     15 C          45.9938   82.0313   18.8191 C.2     1  UNL1        0.2198
     16 N          47.2982   82.5453   19.3521 N.am    1  UNL1       -0.3288
     17 O          45.7325   82.0374   17.3420 O.2     1  UNL1       -0.2753
     18 H          47.4696   82.5413   20.3216 H       1  UNL1        0.1449
     19 H          47.9829   82.8868   18.7326 H       1  UNL1        0.1449
     20 C          45.6595   73.4146   17.8410 C.ar    1  UNL1        0.1222
     21 C          46.3062   72.3135   18.6280 C.ar    1  UNL1        0.0197
     22 C          46.2902   70.9080   18.1042 C.ar    1  UNL1       -0.0004
     23 C          45.6275   70.6036   16.7934 C.ar    1  UNL1        0.0099
     24 C          44.9809   71.7047   16.0064 C.ar    1  UNL1       -0.0004
     25 C          44.9969   73.1101   16.5301 C.ar    1  UNL1        0.0197
     26 C          45.6115   69.1981   16.2697 C.3     1  UNL1        0.1945
     27 C          45.5955   67.7926   15.7458 C.3     1  UNL1        0.0428
     28 O          45.0390   68.7197   17.5709 O.3     1  UNL1       -0.3751
     29 H          44.9253   69.4735   18.1707 H       1  UNL1        0.2110
     30 C          46.1841   69.6765   14.9684 C.3     1  UNL1        0.4230
     31 F          46.7566   70.1549   13.6671 F       1  UNL1       -0.1673
     32 F          44.9839   69.8491   14.0853 F       1  UNL1       -0.1673
     33 F          47.5639   69.6180   15.5540 F       1  UNL1       -0.1673
@<TRIPOS>BOND
     1     5     4    1
     2     5     6    1
     3     6     7    1
     4     7    11    1
     5    11    12    1
     6    12    15    1
     7    15    16   am
     8    15    17    2
     9    12    13    1
    10    13    14    1
    11     7     8    1
    12     8     9    1
    13     9    10    1
    14    10     1    1
    15     1     2    2
    16     1     3    2
    17     1    20    1
    18    20    21   ar
    19    21    22   ar
    20    22    23   ar
    21    23    26    1
    22    26    27    1
    23    26    28    1
    24    26    30    1
    25    30    31    1
    26    30    32    1
    27    30    33    1
    28    23    24   ar
    29    24    25   ar
    30    10     5    1
    31    25    20   ar
    32    14    12    1
    33    16    18    1
    34    16    19    1
    35    28    29    1
