@<TRIPOS>MOLECULE
*****
 32 35 0 0 0
SMALL
GASTEIGER

@<TRIPOS>ATOM
      1 C          63.2495   83.3997   12.2750 C.ar    1  UNL1        0.1397
      2 C          62.4981   82.1604   12.6618 C.ar    1  UNL1        0.0554
      3 C          62.3967   81.7645   14.1050 C.ar    1  UNL1        0.1047
      4 N          63.0469   82.6078   15.1615 N.ar    1  UNL1       -0.2119
      5 C          63.7983   83.8470   14.7747 C.ar    1  UNL1        0.2218
      6 N          63.8997   84.2430   13.3314 N.ar    1  UNL1       -0.1983
      7 N          63.3509   83.7956   10.8317 N.pl3   1  UNL1       -0.2738
      8 C          64.2358   83.0199    9.9016 C.3     1  UNL1        0.1184
      9 C          59.7986   89.1410    7.7592 C.3     1  UNL1        0.0540
     10 C          60.1674   88.5404    9.0834 C.2     1  UNL1        0.0821
     11 N          59.7681   89.0644   10.4310 N.2     1  UNL1       -0.1526
     12 N          60.3542   88.1582   11.4728 N.2     1  UNL1       -0.1523
     13 C          61.1156   87.0742   10.7691 C.2     1  UNL1        0.0873
     14 C          61.8992   85.9027   11.2822 C.3     1  UNL1        0.0890
     15 C          62.5673   84.9673   10.3186 C.2     1  UNL1        0.0361
     16 C          62.4518   85.2035    8.8418 C.2     1  UNL1        0.0109
     17 C          61.6683   86.3751    8.3287 C.2     1  UNL1        0.0034
     18 C          61.0002   87.3105    9.2923 C.2     1  UNL1        0.0310
     19 N          64.4484   84.6904   15.8312 N.pl3   1  UNL1       -0.2825
     20 H          65.1768   84.3181   16.3791 H       1  UNL1        0.1551
     21 C          63.9889   86.1009   16.0530 C.ar    1  UNL1        0.0518
     22 C          63.2352   86.4567   17.3000 C.ar    1  UNL1        0.0148
     23 C          62.7755   87.8673   17.5218 C.ar    1  UNL1        0.0026
     24 C          63.0697   88.9219   16.4965 C.ar    1  UNL1        0.0200
     25 C          63.8235   88.5660   15.2494 C.ar    1  UNL1        0.1229
     26 C          64.2831   87.1555   15.0277 C.ar    1  UNL1        0.0346
     27 S          64.1177   89.6206   14.2241 S.O2    1  UNL1        0.0572
     28 N          64.4118   90.6752   13.1988 N.3     1  UNL1       -0.2035
     29 O          64.5325   90.5643   15.3138 O.2     1  UNL1       -0.1532
     30 O          63.7028   88.6769   13.1344 O.2     1  UNL1       -0.1532
     31 H          64.7445   91.5193   13.6650 H       1  UNL1        0.1442
     32 H          63.5620   90.8879   12.6763 H       1  UNL1        0.1442
@<TRIPOS>BOND
     1     9    10    1
     2    10    11    2
     3    11    12    1
     4    12    13    2
     5    13    14    1
     6    14    15    1
     7    15     7    1
     8     7     8    1
     9     7     1    1
    10     1     2   ar
    11     2     3   ar
    12     3     4   ar
    13     4     5   ar
    14     5    19    1
    15    19    21    1
    16    21    22   ar
    17    22    23   ar
    18    23    24   ar
    19    24    25   ar
    20    25    27    1
    21    27    28    1
    22    27    29    2
    23    27    30    2
    24    25    26   ar
    25     5     6   ar
    26    15    16    2
    27    16    17    1
    28    17    18    2
    29    18    10    1
    30    18    13    1
    31     6     1   ar
    32    26    21   ar
    33    19    20    1
    34    28    31    1
    35    28    32    1
@<TRIPOS>MOLECULE
*****
 32 35 0 0 0
SMALL
GASTEIGER

@<TRIPOS>ATOM
      1 C          60.8452   88.1006   10.0937 C.ar    1  UNL1        0.1397
      2 C          59.7784   88.0074    9.0432 C.ar    1  UNL1        0.0554
      3 C          59.8361   86.9217    8.0099 C.ar    1  UNL1        0.1047
      4 N          60.9606   85.9290    8.0270 N.ar    1  UNL1       -0.2119
      5 C          62.0273   86.0222    9.0773 C.ar    1  UNL1        0.2218
      6 N          61.9697   87.1079   10.1107 N.ar    1  UNL1       -0.1983
      7 N          60.7875   89.1863   11.1270 N.pl3   1  UNL1       -0.2738
      8 C          59.5321   89.4018   11.9192 C.3     1  UNL1        0.1184
      9 C          66.4767   93.4351   11.5885 C.3     1  UNL1        0.0540
     10 C          65.5363   92.5857   12.3911 C.2     1  UNL1        0.0821
     11 N          65.5867   92.3755   13.8754 N.2     1  UNL1       -0.1526
     12 N          64.4619   91.4572   14.2519 N.2     1  UNL1       -0.1523
     13 C          63.7165   91.0999   13.0003 C.2     1  UNL1        0.0873
     14 C          62.5188   90.2296   12.7592 C.3     1  UNL1        0.0890
     15 C          61.9852   90.0567   11.3681 C.2     1  UNL1        0.0361
     16 C          62.6492   90.7541   10.2180 C.2     1  UNL1        0.0109
     17 C          63.8468   91.6245   10.4591 C.2     1  UNL1        0.0034
     18 C          64.3804   91.7973   11.8502 C.2     1  UNL1        0.0310
     19 N          63.1518   85.0295    9.0944 N.pl3   1  UNL1       -0.2825
     20 H          63.7476   84.9473    8.3150 H       1  UNL1        0.1551
     21 C          63.3684   84.1622   10.2989 C.ar    1  UNL1        0.0518
     22 C          64.0407   82.8294   10.1522 C.ar    1  UNL1        0.0148
     23 C          64.2573   81.9620   11.3567 C.ar    1  UNL1        0.0026
     24 C          63.8016   82.4276   12.7079 C.ar    1  UNL1        0.0200
     25 C          63.1293   83.7604   12.8545 C.ar    1  UNL1        0.1229
     26 C          62.9127   84.6277   11.6500 C.ar    1  UNL1        0.0346
     27 S          62.6736   84.2259   14.2057 S.O2    1  UNL1        0.0572
     28 N          62.2178   84.6914   15.5568 N.3     1  UNL1       -0.2035
     29 O          62.1595   82.8493   14.5066 O.2     1  UNL1       -0.1532
     30 O          63.1876   85.6026   13.9047 O.2     1  UNL1       -0.1532
     31 H          61.7850   83.9144   16.0560 H       1  UNL1        0.1442
     32 H          61.5390   85.4446   15.4458 H       1  UNL1        0.1442
@<TRIPOS>BOND
     1     9    10    1
     2    10    11    2
     3    11    12    1
     4    12    13    2
     5    13    14    1
     6    14    15    1
     7    15     7    1
     8     7     8    1
     9     7     1    1
    10     1     2   ar
    11     2     3   ar
    12     3     4   ar
    13     4     5   ar
    14     5    19    1
    15    19    21    1
    16    21    22   ar
    17    22    23   ar
    18    23    24   ar
    19    24    25   ar
    20    25    27    1
    21    27    28    1
    22    27    29    2
    23    27    30    2
    24    25    26   ar
    25     5     6   ar
    26    15    16    2
    27    16    17    1
    28    17    18    2
    29    18    10    1
    30    18    13    1
    31     6     1   ar
    32    26    21   ar
    33    19    20    1
    34    28    31    1
    35    28    32    1
@<TRIPOS>MOLECULE
*****
 32 35 0 0 0
SMALL
GASTEIGER

@<TRIPOS>ATOM
      1 C          61.7951   87.3576    9.7924 C.ar    1  UNL1        0.1397
      2 C          60.3087   87.5600    9.7982 C.ar    1  UNL1        0.0554
      3 C          59.7365   88.9069   10.1274 C.ar    1  UNL1        0.1047
      4 N          60.6505   90.0514   10.4508 N.ar    1  UNL1       -0.2119
      5 C          62.1367   89.8491   10.4450 C.ar    1  UNL1        0.2218
      6 N          62.7090   88.5022   10.1158 N.ar    1  UNL1       -0.1983
      7 N          62.3673   86.0108    9.4632 N.pl3   1  UNL1       -0.2738
      8 C          62.6770   85.6551    8.0393 C.3     1  UNL1        0.1184
      9 C          63.8498   80.8804   14.1658 C.3     1  UNL1        0.0540
     10 C          63.3024   82.2702   14.0282 C.2     1  UNL1        0.0821
     11 N          62.8064   83.1373   15.1472 N.2     1  UNL1       -0.1526
     12 N          62.3524   84.4398   14.5579 N.2     1  UNL1       -0.1523
     13 C          62.5679   84.3778   13.0748 C.2     1  UNL1        0.0873
     14 C          62.3053   85.3691   11.9801 C.3     1  UNL1        0.0890
     15 C          62.6299   85.0195   10.5580 C.2     1  UNL1        0.0361
     16 C          63.2170   83.6785   10.2306 C.2     1  UNL1        0.0109
     17 C          63.4796   82.6872   11.3253 C.2     1  UNL1        0.0034
     18 C          63.1550   83.0369   12.7474 C.2     1  UNL1        0.0310
     19 N          63.0507   90.9937   10.7685 N.pl3   1  UNL1       -0.2825
     20 H          63.1833   91.7176   10.1146 H       1  UNL1        0.1551
     21 C          63.7626   91.0352   12.0881 C.ar    1  UNL1        0.0518
     22 C          64.9478   91.9358   12.2728 C.ar    1  UNL1        0.0148
     23 C          65.6598   91.9773   13.5925 C.ar    1  UNL1        0.0026
     24 C          65.1865   91.1183   14.7274 C.ar    1  UNL1        0.0200
     25 C          64.0012   90.2176   14.5426 C.ar    1  UNL1        0.1229
     26 C          63.2893   90.1761   13.2230 C.ar    1  UNL1        0.0346
     27 S          63.5279   89.3586   15.6775 S.O2    1  UNL1        0.0572
     28 N          63.0546   88.4995   16.8124 N.3     1  UNL1       -0.2035
     29 O          63.8396   88.1291   14.8768 O.2     1  UNL1       -0.1532
     30 O          63.2162   90.5881   16.4782 O.2     1  UNL1       -0.1532
     31 H          63.1471   87.5165   16.5563 H       1  UNL1        0.1442
     32 H          62.0763   88.7083   17.0118 H       1  UNL1        0.1442
@<TRIPOS>BOND
     1     9    10    1
     2    10    11    2
     3    11    12    1
     4    12    13    2
     5    13    14    1
     6    14    15    1
     7    15     7    1
     8     7     8    1
     9     7     1    1
    10     1     2   ar
    11     2     3   ar
    12     3     4   ar
    13     4     5   ar
    14     5    19    1
    15    19    21    1
    16    21    22   ar
    17    22    23   ar
    18    23    24   ar
    19    24    25   ar
    20    25    27    1
    21    27    28    1
    22    27    29    2
    23    27    30    2
    24    25    26   ar
    25     5     6   ar
    26    15    16    2
    27    16    17    1
    28    17    18    2
    29    18    10    1
    30    18    13    1
    31     6     1   ar
    32    26    21   ar
    33    19    20    1
    34    28    31    1
    35    28    32    1
@<TRIPOS>MOLECULE
*****
 32 35 0 0 0
SMALL
GASTEIGER

@<TRIPOS>ATOM
      1 C          61.9062   87.5195   10.3420 C.ar    1  UNL1        0.1397
      2 C          60.8600   88.2607    9.5635 C.ar    1  UNL1        0.0554
      3 C          60.3541   89.5835   10.0577 C.ar    1  UNL1        0.1047
      4 N          60.8945   90.1652   11.3304 N.ar    1  UNL1       -0.2119
      5 C          61.9407   89.4240   12.1089 C.ar    1  UNL1        0.2218
      6 N          62.4466   88.1011   11.6147 N.ar    1  UNL1       -0.1983
      7 N          62.4121   86.1967    9.8478 N.pl3   1  UNL1       -0.2738
      8 C          62.6818   85.9955    8.3860 C.3     1  UNL1        0.1184
      9 C          63.7600   80.5043   13.8990 C.3     1  UNL1        0.0540
     10 C          63.2470   81.9136   13.9298 C.2     1  UNL1        0.0821
     11 N          62.7703   82.6520   15.1453 N.2     1  UNL1       -0.1526
     12 N          62.3495   84.0266   14.7171 N.2     1  UNL1       -0.1523
     13 C          62.5660   84.1377   13.2370 C.2     1  UNL1        0.0873
     14 C          62.3298   85.2594   12.2695 C.3     1  UNL1        0.0890
     15 C          62.6483   85.0751   10.8154 C.2     1  UNL1        0.0361
     16 C          63.2031   83.7691   10.3288 C.2     1  UNL1        0.0109
     17 C          63.4393   82.6475   11.2963 C.2     1  UNL1        0.0034
     18 C          63.1208   82.8318   12.7504 C.2     1  UNL1        0.0310
     19 N          62.4810   90.0056   13.3816 N.pl3   1  UNL1       -0.2825
     20 H          61.9695   89.9193   14.2184 H       1  UNL1        0.1551
     21 C          63.8006   90.7187   13.3794 C.ar    1  UNL1        0.0518
     22 C          64.7571   90.5298   14.5193 C.ar    1  UNL1        0.0148
     23 C          66.0768   91.2429   14.5171 C.ar    1  UNL1        0.0026
     24 C          66.4400   92.1449   13.3750 C.ar    1  UNL1        0.0200
     25 C          65.4834   92.3339   12.2351 C.ar    1  UNL1        0.1229
     26 C          64.1638   91.6208   12.2373 C.ar    1  UNL1        0.0346
     27 S          65.8466   93.2359   11.0929 S.O2    1  UNL1        0.0572
     28 N          66.2097   94.1379    9.9508 N.3     1  UNL1       -0.2035
     29 O          64.7132   92.6728   10.2878 O.2     1  UNL1       -0.1532
     30 O          66.9800   93.7990   11.8981 O.2     1  UNL1       -0.1532
     31 H          65.5654   93.9814    9.1758 H       1  UNL1        0.1442
     32 H          67.1623   93.9355    9.6473 H       1  UNL1        0.1442
@<TRIPOS>BOND
     1     9    10    1
     2    10    11    2
     3    11    12    1
     4    12    13    2
     5    13    14    1
     6    14    15    1
     7    15     7    1
     8     7     8    1
     9     7     1    1
    10     1     2   ar
    11     2     3   ar
    12     3     4   ar
    13     4     5   ar
    14     5    19    1
    15    19    21    1
    16    21    22   ar
    17    22    23   ar
    18    23    24   ar
    19    24    25   ar
    20    25    27    1
    21    27    28    1
    22    27    29    2
    23    27    30    2
    24    25    26   ar
    25     5     6   ar
    26    15    16    2
    27    16    17    1
    28    17    18    2
    29    18    10    1
    30    18    13    1
    31     6     1   ar
    32    26    21   ar
    33    19    20    1
    34    28    31    1
    35    28    32    1
@<TRIPOS>MOLECULE
*****
 32 35 0 0 0
SMALL
GASTEIGER

@<TRIPOS>ATOM
      1 C          61.1656   88.1983   10.5350 C.ar    1  UNL1        0.1397
      2 C          60.3460   88.1668    9.2791 C.ar    1  UNL1        0.0554
      3 C          60.4149   86.9770    8.3683 C.ar    1  UNL1        0.1047
      4 N          61.3033   85.8187    8.7133 N.ar    1  UNL1       -0.2119
      5 C          62.1229   85.8502    9.9691 C.ar    1  UNL1        0.2218
      6 N          62.0541   87.0400   10.8801 N.ar    1  UNL1       -0.1983
      7 N          61.0968   89.3880   11.4459 N.pl3   1  UNL1       -0.2738
      8 C          59.7690   89.8716   11.9490 C.3     1  UNL1        0.1184
      9 C          67.0204   92.4039   13.9850 C.3     1  UNL1        0.0540
     10 C          66.1141   92.3412   12.7914 C.2     1  UNL1        0.0821
     11 N          66.2891   93.1019   11.5105 N.2     1  UNL1       -0.1526
     12 N          65.1567   92.7376   10.5967 N.2     1  UNL1       -0.1523
     13 C          64.2819   91.7518   11.3128 C.2     1  UNL1        0.0873
     14 C          63.0230   91.0455   10.9050 C.3     1  UNL1        0.0890
     15 C          62.3557   90.0943   11.8537 C.2     1  UNL1        0.0361
     16 C          62.9474   89.8494   13.2101 C.2     1  UNL1        0.0109
     17 C          64.2063   90.5556   13.6179 C.2     1  UNL1        0.0034
     18 C          64.8736   91.5068   12.6693 C.2     1  UNL1        0.0310
     19 N          63.0114   84.6919   10.3141 N.pl3   1  UNL1       -0.2825
     20 H          63.6502   84.3465    9.6494 H       1  UNL1        0.1551
     21 C          62.9266   84.0600   11.6719 C.ar    1  UNL1        0.0518
     22 C          62.5940   82.6032   11.8016 C.ar    1  UNL1        0.0148
     23 C          62.5092   81.9712   13.1593 C.ar    1  UNL1        0.0026
     24 C          62.7570   82.7962   14.3874 C.ar    1  UNL1        0.0200
     25 C          63.0896   84.2531   14.2576 C.ar    1  UNL1        0.1229
     26 C          63.1744   84.8850   12.8999 C.ar    1  UNL1        0.0346
     27 S          63.3373   85.0781   15.4856 S.O2    1  UNL1        0.0572
     28 N          63.5851   85.9031   16.7136 N.3     1  UNL1       -0.2035
     29 O          64.7690   85.2579   15.0759 O.2     1  UNL1       -0.1532
     30 O          61.9056   84.8982   15.8953 O.2     1  UNL1       -0.1532
     31 H          64.5591   86.2054   16.7293 H       1  UNL1        0.1442
     32 H          63.3892   85.3441   17.5440 H       1  UNL1        0.1442
@<TRIPOS>BOND
     1     9    10    1
     2    10    11    2
     3    11    12    1
     4    12    13    2
     5    13    14    1
     6    14    15    1
     7    15     7    1
     8     7     8    1
     9     7     1    1
    10     1     2   ar
    11     2     3   ar
    12     3     4   ar
    13     4     5   ar
    14     5    19    1
    15    19    21    1
    16    21    22   ar
    17    22    23   ar
    18    23    24   ar
    19    24    25   ar
    20    25    27    1
    21    27    28    1
    22    27    29    2
    23    27    30    2
    24    25    26   ar
    25     5     6   ar
    26    15    16    2
    27    16    17    1
    28    17    18    2
    29    18    10    1
    30    18    13    1
    31     6     1   ar
    32    26    21   ar
    33    19    20    1
    34    28    31    1
    35    28    32    1
@<TRIPOS>MOLECULE
*****
 32 35 0 0 0
SMALL
GASTEIGER

@<TRIPOS>ATOM
      1 C          61.9159   87.2873    9.8319 C.ar    1  UNL1        0.1397
      2 C          60.7865   87.8062    8.9920 C.ar    1  UNL1        0.0554
      3 C          60.1664   89.1351    9.3074 C.ar    1  UNL1        0.1047
      4 N          60.6757   89.9451   10.4627 N.ar    1  UNL1       -0.2119
      5 C          61.8050   89.4262   11.3025 C.ar    1  UNL1        0.2218
      6 N          62.4252   88.0972   10.9871 N.ar    1  UNL1       -0.1983
      7 N          62.5360   85.9584    9.5164 N.pl3   1  UNL1       -0.2738
      8 C          62.9441   85.6362    8.1094 C.3     1  UNL1        0.1184
      9 C          63.7828   80.7543   14.2063 C.3     1  UNL1        0.0540
     10 C          63.2690   82.1567   14.0678 C.2     1  UNL1        0.0821
     11 N          62.7617   83.0239   15.1817 N.2     1  UNL1       -0.1526
     12 N          62.3515   84.3413   14.5933 N.2     1  UNL1       -0.1523
     13 C          62.6052   84.2883   13.1159 C.2     1  UNL1        0.0873
     14 C          62.3931   85.2951   12.0244 C.3     1  UNL1        0.0890
     15 C          62.7481   84.9516   10.6081 C.2     1  UNL1        0.0361
     16 C          63.3151   83.6014   10.2833 C.2     1  UNL1        0.0109
     17 C          63.5272   82.5947   11.3748 C.2     1  UNL1        0.0034
     18 C          63.1722   82.9382   12.7911 C.2     1  UNL1        0.0310
     19 N          62.3142   90.2362   12.4578 N.pl3   1  UNL1       -0.2825
     20 H          61.8404   90.2151   13.3205 H       1  UNL1        0.1551
     21 C          63.5453   91.0782   12.2985 C.ar    1  UNL1        0.0518
     22 C          63.9929   91.5011   10.9308 C.ar    1  UNL1        0.0148
     23 C          65.2240   92.3432   10.7715 C.ar    1  UNL1        0.0026
     24 C          66.0075   92.7624   11.9800 C.ar    1  UNL1        0.0200
     25 C          65.5598   92.3394   13.3478 C.ar    1  UNL1        0.1229
     26 C          64.3287   91.4974   13.5070 C.ar    1  UNL1        0.0346
     27 S          66.3433   92.7586   14.5563 S.O2    1  UNL1        0.0572
     28 N          67.1267   93.1778   15.7648 N.3     1  UNL1       -0.2035
     29 O          65.1877   92.3828   15.4358 O.2     1  UNL1       -0.1532
     30 O          67.4988   93.1344   13.6769 O.2     1  UNL1       -0.1532
     31 H          66.5634   93.0319   16.6026 H       1  UNL1        0.1442
     32 H          67.3702   94.1652   15.6865 H       1  UNL1        0.1442
@<TRIPOS>BOND
     1     9    10    1
     2    10    11    2
     3    11    12    1
     4    12    13    2
     5    13    14    1
     6    14    15    1
     7    15     7    1
     8     7     8    1
     9     7     1    1
    10     1     2   ar
    11     2     3   ar
    12     3     4   ar
    13     4     5   ar
    14     5    19    1
    15    19    21    1
    16    21    22   ar
    17    22    23   ar
    18    23    24   ar
    19    24    25   ar
    20    25    27    1
    21    27    28    1
    22    27    29    2
    23    27    30    2
    24    25    26   ar
    25     5     6   ar
    26    15    16    2
    27    16    17    1
    28    17    18    2
    29    18    10    1
    30    18    13    1
    31     6     1   ar
    32    26    21   ar
    33    19    20    1
    34    28    31    1
    35    28    32    1
@<TRIPOS>MOLECULE
*****
 32 35 0 0 0
SMALL
GASTEIGER

@<TRIPOS>ATOM
      1 C          62.4526   89.2824   10.8962 C.ar    1  UNL1        0.1397
      2 C          62.7600   90.4669   10.0287 C.ar    1  UNL1        0.0554
      3 C          63.6251   91.5751   10.5515 C.ar    1  UNL1        0.1047
      4 N          64.1829   91.4989   11.9418 N.ar    1  UNL1       -0.2119
      5 C          63.8756   90.3144   12.8093 C.ar    1  UNL1        0.2218
      6 N          63.0104   89.2061   12.2865 N.ar    1  UNL1       -0.1983
      7 N          61.5875   88.1742   10.3733 N.pl3   1  UNL1       -0.2738
      8 C          60.2534   88.4881    9.7637 C.3     1  UNL1        0.1184
      9 C          63.9702   81.4744   10.1122 C.3     1  UNL1        0.0540
     10 C          63.3770   82.5100   11.0209 C.2     1  UNL1        0.0821
     11 N          63.0624   82.3296   12.4764 N.2     1  UNL1       -0.1526
     12 N          62.4853   83.6159   12.9887 N.2     1  UNL1       -0.1523
     13 C          62.4432   84.5912   11.8498 C.2     1  UNL1        0.0873
     14 C          61.9743   86.0133   11.7631 C.3     1  UNL1        0.0890
     15 C          62.0565   86.7520   10.4602 C.2     1  UNL1        0.0361
     16 C          62.6076   86.0684    9.2440 C.2     1  UNL1        0.0109
     17 C          63.0765   84.6463    9.3307 C.2     1  UNL1        0.0034
     18 C          62.9943   83.9077   10.6337 C.2     1  UNL1        0.0310
     19 N          64.4334   90.2382   14.1997 N.pl3   1  UNL1       -0.2825
     20 H          65.0751   90.9171   14.5105 H       1  UNL1        0.1551
     21 C          64.0136   89.1276   15.1163 C.ar    1  UNL1        0.0518
     22 C          63.2428   89.4370   16.3654 C.ar    1  UNL1        0.0148
     23 C          62.8230   88.3264   17.2821 C.ar    1  UNL1        0.0026
     24 C          63.1740   86.9064   16.9498 C.ar    1  UNL1        0.0200
     25 C          63.9449   86.5971   15.7007 C.ar    1  UNL1        0.1229
     26 C          64.3647   87.7076   14.7840 C.ar    1  UNL1        0.0346
     27 S          64.2959   85.1771   15.3684 S.O2    1  UNL1        0.0572
     28 N          64.6469   83.7571   15.0360 N.3     1  UNL1       -0.2035
     29 O          65.5882   85.6384   14.7624 O.2     1  UNL1       -0.1532
     30 O          63.0036   84.7158   15.9743 O.2     1  UNL1       -0.1532
     31 H          65.5550   83.7310   14.5722 H       1  UNL1        0.1442
     32 H          63.9370   83.3676   14.4158 H       1  UNL1        0.1442
@<TRIPOS>BOND
     1     9    10    1
     2    10    11    2
     3    11    12    1
     4    12    13    2
     5    13    14    1
     6    14    15    1
     7    15     7    1
     8     7     8    1
     9     7     1    1
    10     1     2   ar
    11     2     3   ar
    12     3     4   ar
    13     4     5   ar
    14     5    19    1
    15    19    21    1
    16    21    22   ar
    17    22    23   ar
    18    23    24   ar
    19    24    25   ar
    20    25    27    1
    21    27    28    1
    22    27    29    2
    23    27    30    2
    24    25    26   ar
    25     5     6   ar
    26    15    16    2
    27    16    17    1
    28    17    18    2
    29    18    10    1
    30    18    13    1
    31     6     1   ar
    32    26    21   ar
    33    19    20    1
    34    28    31    1
    35    28    32    1
@<TRIPOS>MOLECULE
*****
 32 35 0 0 0
SMALL
GASTEIGER

@<TRIPOS>ATOM
      1 C          62.1956   90.3684   11.9600 C.ar    1  UNL1        0.1397
      2 C          63.1401   91.3260   11.2958 C.ar    1  UNL1        0.0554
      3 C          64.3288   91.8491   12.0463 C.ar    1  UNL1        0.1047
      4 N          64.5731   91.4147   13.4611 N.ar    1  UNL1       -0.2119
      5 C          63.6287   90.4572   14.1253 C.ar    1  UNL1        0.2218
      6 N          62.4399   89.9341   13.3748 N.ar    1  UNL1       -0.1983
      7 N          61.0070   89.8453   11.2095 N.pl3   1  UNL1       -0.2738
      8 C          59.6573   90.4667   11.4151 C.3     1  UNL1        0.1184
      9 C          62.4321   84.3836    6.8769 C.3     1  UNL1        0.0540
     10 C          61.3477   85.3187    7.3238 C.2     1  UNL1        0.0821
     11 N          59.9307   85.3248    6.8318 N.2     1  UNL1       -0.1526
     12 N          59.1972   86.4218    7.5450 N.2     1  UNL1       -0.1523
     13 C          60.1609   87.0936    8.4777 C.2     1  UNL1        0.0873
     14 C          59.9999   88.2381    9.4339 C.3     1  UNL1        0.0890
     15 C          61.1679   88.7008   10.2533 C.2     1  UNL1        0.0361
     16 C          62.4971   88.0191   10.1165 C.2     1  UNL1        0.0109
     17 C          62.6581   86.8746    9.1604 C.2     1  UNL1        0.0034
     18 C          61.4900   86.4119    8.3410 C.2     1  UNL1        0.0310
     19 N          63.8730   90.0228   15.5401 N.pl3   1  UNL1       -0.2825
     20 H          64.1616   90.6800   16.2140 H       1  UNL1        0.1551
     21 C          63.6775   88.5872   15.9283 C.ar    1  UNL1        0.0518
     22 C          62.9636   88.2453   17.2023 C.ar    1  UNL1        0.0148
     23 C          62.7681   86.8096   17.5905 C.ar    1  UNL1        0.0026
     24 C          63.2866   85.7159   16.7046 C.ar    1  UNL1        0.0200
     25 C          64.0006   86.0578   15.4304 C.ar    1  UNL1        0.1229
     26 C          64.1960   87.4935   15.0423 C.ar    1  UNL1        0.0346
     27 S          64.5191   84.9641   14.5445 S.O2    1  UNL1        0.0572
     28 N          65.0376   83.8704   13.6585 N.3     1  UNL1       -0.2035
     29 O          63.1250   84.4351   14.3816 O.2     1  UNL1       -0.1532
     30 O          65.9132   85.4931   14.7074 O.2     1  UNL1       -0.1532
     31 H          64.2613   83.2833   13.3533 H       1  UNL1        0.1442
     32 H          65.7096   83.3036   14.1759 H       1  UNL1        0.1442
@<TRIPOS>BOND
     1     9    10    1
     2    10    11    2
     3    11    12    1
     4    12    13    2
     5    13    14    1
     6    14    15    1
     7    15     7    1
     8     7     8    1
     9     7     1    1
    10     1     2   ar
    11     2     3   ar
    12     3     4   ar
    13     4     5   ar
    14     5    19    1
    15    19    21    1
    16    21    22   ar
    17    22    23   ar
    18    23    24   ar
    19    24    25   ar
    20    25    27    1
    21    27    28    1
    22    27    29    2
    23    27    30    2
    24    25    26   ar
    25     5     6   ar
    26    15    16    2
    27    16    17    1
    28    17    18    2
    29    18    10    1
    30    18    13    1
    31     6     1   ar
    32    26    21   ar
    33    19    20    1
    34    28    31    1
    35    28    32    1
@<TRIPOS>MOLECULE
*****
 32 35 0 0 0
SMALL
GASTEIGER

@<TRIPOS>ATOM
      1 C          62.3563   89.1074   12.0875 C.ar    1  UNL1        0.1397
      2 C          60.9964   89.7351   12.0040 C.ar    1  UNL1        0.0554
      3 C          59.8974   89.0463   11.2505 C.ar    1  UNL1        0.1047
      4 N          60.1581   87.7298   10.5806 N.ar    1  UNL1       -0.2119
      5 C          61.5179   87.1021   10.6640 C.ar    1  UNL1        0.2218
      6 N          62.6170   87.7909   11.4175 N.ar    1  UNL1       -0.1983
      7 N          63.4553   89.7961   12.8409 N.pl3   1  UNL1       -0.2738
      8 C          63.8892   89.2740   14.1784 C.3     1  UNL1        0.1184
      9 C          66.3087   95.3746    9.4688 C.3     1  UNL1        0.0540
     10 C          66.2307   94.6758   10.7938 C.2     1  UNL1        0.0821
     11 N          66.9191   95.1013   12.0568 N.2     1  UNL1       -0.1526
     12 N          66.5645   94.1173   13.1320 N.2     1  UNL1       -0.1523
     13 C          65.6570   93.0837   12.5335 C.2     1  UNL1        0.0873
     14 C          64.9919   91.8728   13.1176 C.3     1  UNL1        0.0890
     15 C          64.1205   91.0071   12.2567 C.2     1  UNL1        0.0361
     16 C          63.9142   91.3523   10.8116 C.2     1  UNL1        0.0109
     17 C          64.5794   92.5632   10.2275 C.2     1  UNL1        0.0034
     18 C          65.4508   93.4289   11.0884 C.2     1  UNL1        0.0310
     19 N          61.7786   85.7856    9.9941 N.pl3   1  UNL1       -0.2825
     20 H          61.4124   85.6085    9.0975 H       1  UNL1        0.1551
     21 C          62.5971   84.7389   10.6901 C.ar    1  UNL1        0.0518
     22 C          63.6138   83.9481    9.9215 C.ar    1  UNL1        0.0148
     23 C          64.4324   82.9014   10.6175 C.ar    1  UNL1        0.0026
     24 C          64.2342   82.6456   12.0822 C.ar    1  UNL1        0.0200
     25 C          63.2175   83.4365   12.8508 C.ar    1  UNL1        0.1229
     26 C          62.3989   84.4831   12.1548 C.ar    1  UNL1        0.0346
     27 S          63.0193   83.1807   14.3155 S.O2    1  UNL1        0.0572
     28 N          62.8211   82.9248   15.7802 N.3     1  UNL1       -0.2035
     29 O          63.6991   81.8509   14.1752 O.2     1  UNL1       -0.1532
     30 O          62.3395   84.5104   14.4558 O.2     1  UNL1       -0.1532
     31 H          63.2120   82.0143   16.0222 H       1  UNL1        0.1442
     32 H          61.8241   82.9348   15.9952 H       1  UNL1        0.1442
@<TRIPOS>BOND
     1     9    10    1
     2    10    11    2
     3    11    12    1
     4    12    13    2
     5    13    14    1
     6    14    15    1
     7    15     7    1
     8     7     8    1
     9     7     1    1
    10     1     2   ar
    11     2     3   ar
    12     3     4   ar
    13     4     5   ar
    14     5    19    1
    15    19    21    1
    16    21    22   ar
    17    22    23   ar
    18    23    24   ar
    19    24    25   ar
    20    25    27    1
    21    27    28    1
    22    27    29    2
    23    27    30    2
    24    25    26   ar
    25     5     6   ar
    26    15    16    2
    27    16    17    1
    28    17    18    2
    29    18    10    1
    30    18    13    1
    31     6     1   ar
    32    26    21   ar
    33    19    20    1
    34    28    31    1
    35    28    32    1
