@<TRIPOS>MOLECULE
*****
 36 40 0 0 0
SMALL
GASTEIGER

@<TRIPOS>ATOM
      1 C          64.5278   90.0177   14.8272 C.3     1  UNL1        0.0933
      2 C          64.6952   88.6769   14.1757 C.3     1  UNL1        0.0442
      3 C          64.0904   87.4568   14.8047 C.3     1  UNL1        0.0953
      4 N          63.3183   87.5774   16.0850 N.am    1  UNL1       -0.2794
      5 C          62.7136   86.3572   16.7139 C.2     1  UNL1        0.2252
      6 O          61.9415   86.4778   17.9943 O.2     1  UNL1       -0.2749
      7 C          63.1510   88.9181   16.7364 C.3     1  UNL1        0.0953
      8 C          63.7557   90.1383   16.1075 C.3     1  UNL1        0.0442
      9 N          65.6269   93.0210   12.6278 N.ar    1  UNL1       -0.2785
     10 C          64.7822   91.8022   12.8534 C.ar    1  UNL1        0.3315
     11 O          63.7656   91.2455   11.9012 O.2     1  UNL1       -0.2463
     12 N          65.1325   91.2379   14.1983 N.ar    1  UNL1       -0.2817
     13 C          66.1938   92.1079   14.8039 C.ar    1  UNL1        0.0796
     14 C          66.9214   92.0390   16.1138 C.ar    1  UNL1        0.0188
     15 C          67.9546   93.0722   16.4530 C.ar    1  UNL1        0.0016
     16 C          68.2601   94.1742   15.4824 C.ar    1  UNL1        0.0016
     17 C          67.5325   94.2431   14.1725 C.ar    1  UNL1        0.0188
     18 C          66.4994   93.2099   13.8333 C.ar    1  UNL1        0.0797
     19 C          65.6034   93.8971   11.4104 C.3     1  UNL1        0.1278
     20 C          66.0756   93.3612   10.0915 C.3     1  UNL1        0.0971
     21 C          68.5017   92.8367    9.3240 C.3     1  UNL1        0.0897
     22 N          67.3853   93.8189    9.5213 N.3     1  UNL1       -0.2687
     23 C          67.5786   95.2589    9.1484 C.3     1  UNL1        0.0897
     24 C          62.8810   85.0165   16.0625 C.3     1  UNL1        0.0795
     25 C          61.6798   84.2709   15.5612 C.3     1  UNL1        0.0264
     26 C          61.8473   82.9302   14.9097 C.3     1  UNL1        0.0729
     27 N          63.2160   82.3351   14.7595 N.3     1  UNL1       -0.2689
     28 C          64.4172   83.0807   15.2607 C.3     1  UNL1        0.0729
     29 C          64.2497   84.4214   15.9122 C.3     1  UNL1        0.0264
     30 C          63.3834   80.9944   14.1080 C.3     1  UNL1        0.0992
     31 C          63.2977   80.8696   12.6157 C.ar    1  UNL1       -0.0031
     32 C          62.7911   79.6005   11.9970 C.ar    1  UNL1        0.0178
     33 C          62.7054   79.4758   10.5046 C.ar    1  UNL1        0.0986
     34 N          63.1262   80.6202    9.6310 N.ar    1  UNL1       -0.2423
     35 C          63.6327   81.8893   10.2497 C.ar    1  UNL1        0.0986
     36 C          63.7184   82.0141   11.7420 C.ar    1  UNL1        0.0178
@<TRIPOS>BOND
     1    21    22    1
     2    22    23    1
     3    22    20    1
     4    20    19    1
     5    19     9    1
     6     9    10   ar
     7    10    11    2
     8    10    12   ar
     9    12     1    1
    10     1     2    1
    11     2     3    1
    12     3     4    1
    13     4     5   am
    14     5     6    2
    15     5    24    1
    16    24    25    1
    17    25    26    1
    18    26    27    1
    19    27    30    1
    20    30    31    1
    21    31    32   ar
    22    32    33   ar
    23    33    34   ar
    24    34    35   ar
    25    35    36   ar
    26    27    28    1
    27    28    29    1
    28     4     7    1
    29     7     8    1
    30    12    13   ar
    31    13    14   ar
    32    14    15   ar
    33    15    16   ar
    34    16    17   ar
    35    17    18   ar
    36    18     9   ar
    37     8     1    1
    38    18    13   ar
    39    29    24    1
    40    36    31   ar
@<TRIPOS>MOLECULE
*****
 36 40 0 0 0
SMALL
GASTEIGER

@<TRIPOS>ATOM
      1 C          61.9532   88.5539   10.9520 C.3     1  UNL1        0.0933
      2 C          61.9961   89.7006    9.9858 C.3     1  UNL1        0.0442
      3 C          61.1064   89.6975    8.7782 C.3     1  UNL1        0.0953
      4 N          60.1737   88.5478    8.5367 N.am    1  UNL1       -0.2794
      5 C          59.2840   88.5447    7.3291 C.2     1  UNL1        0.2252
      6 O          58.3514   87.3950    7.0875 O.2     1  UNL1       -0.2749
      7 C          60.1309   87.4012    9.5028 C.3     1  UNL1        0.0953
      8 C          61.0206   87.4042   10.7104 C.3     1  UNL1        0.0442
      9 N          64.2314   89.3112   14.0018 N.ar    1  UNL1       -0.2785
     10 C          63.3971   89.7716   12.8434 C.ar    1  UNL1        0.3315
     11 O          63.1587   91.1964   12.4397 O.2     1  UNL1       -0.2463
     12 N          62.8430   88.5569   12.1596 N.ar    1  UNL1       -0.2817
     13 C          63.3349   87.3458   12.8954 C.ar    1  UNL1        0.0796
     14 C          63.1123   85.8788   12.6757 C.ar    1  UNL1        0.0188
     15 C          63.7477   84.8780   13.5946 C.ar    1  UNL1        0.0016
     16 C          64.6058   85.3442   14.7332 C.ar    1  UNL1        0.0016
     17 C          64.8284   86.8112   14.9529 C.ar    1  UNL1        0.0188
     18 C          64.1930   87.8120   14.0340 C.ar    1  UNL1        0.0797
     19 C          64.9738   90.1948   14.9600 C.3     1  UNL1        0.1278
     20 C          65.3961   91.5708   14.5380 C.3     1  UNL1        0.0971
     21 C          67.1347   92.6894   16.1114 C.3     1  UNL1        0.0897
     22 N          66.7960   92.0400   14.8025 N.3     1  UNL1       -0.2687
     23 C          67.8574   91.8596   13.7579 C.3     1  UNL1        0.0897
     24 C          59.3269   89.6914    6.3631 C.3     1  UNL1        0.0795
     25 C          60.6265   90.0891    5.7282 C.3     1  UNL1        0.0264
     26 C          60.6693   91.2359    4.7621 C.3     1  UNL1        0.0729
     27 N          59.4126   91.9849    4.4310 N.3     1  UNL1       -0.2689
     28 C          58.1131   91.5872    5.0658 C.3     1  UNL1        0.0729
     29 C          58.0702   90.4405    6.0318 C.3     1  UNL1        0.0264
     30 C          59.4556   93.1316    3.4649 C.3     1  UNL1        0.0992
     31 C          60.1802   92.9860    2.1597 C.ar    1  UNL1       -0.0031
     32 C          59.4115   92.7085    0.9019 C.ar    1  UNL1        0.0178
     33 C          60.1362   92.5629   -0.4033 C.ar    1  UNL1        0.0986
     34 N          61.6296   92.6949   -0.4507 N.ar    1  UNL1       -0.2423
     35 C          62.3983   92.9724    0.8071 C.ar    1  UNL1        0.0986
     36 C          61.6737   93.1180    2.1123 C.ar    1  UNL1        0.0178
@<TRIPOS>BOND
     1    21    22    1
     2    22    23    1
     3    22    20    1
     4    20    19    1
     5    19     9    1
     6     9    10   ar
     7    10    11    2
     8    10    12   ar
     9    12     1    1
    10     1     2    1
    11     2     3    1
    12     3     4    1
    13     4     5   am
    14     5     6    2
    15     5    24    1
    16    24    25    1
    17    25    26    1
    18    26    27    1
    19    27    30    1
    20    30    31    1
    21    31    32   ar
    22    32    33   ar
    23    33    34   ar
    24    34    35   ar
    25    35    36   ar
    26    27    28    1
    27    28    29    1
    28     4     7    1
    29     7     8    1
    30    12    13   ar
    31    13    14   ar
    32    14    15   ar
    33    15    16   ar
    34    16    17   ar
    35    17    18   ar
    36    18     9   ar
    37     8     1    1
    38    18    13   ar
    39    29    24    1
    40    36    31   ar
@<TRIPOS>MOLECULE
*****
 36 40 0 0 0
SMALL
GASTEIGER

@<TRIPOS>ATOM
      1 C          61.8696   88.3094   10.8700 C.3     1  UNL1        0.0933
      2 C          61.9796   89.4752    9.9324 C.3     1  UNL1        0.0442
      3 C          61.0852   89.5585    8.7311 C.3     1  UNL1        0.0953
      4 N          60.0809   88.4761    8.4672 N.am    1  UNL1       -0.2794
      5 C          59.1866   88.5594    7.2659 C.2     1  UNL1        0.2252
      6 O          58.1822   87.4770    7.0020 O.2     1  UNL1       -0.2749
      7 C          59.9709   87.3104    9.4047 C.3     1  UNL1        0.0953
      8 C          60.8652   87.2270   10.6061 C.3     1  UNL1        0.0442
      9 N          64.0238   87.3579   13.9552 N.ar    1  UNL1       -0.2785
     10 C          63.1014   86.9796   12.8345 C.ar    1  UNL1        0.3315
     11 O          62.6038   85.5976   12.5304 O.2     1  UNL1       -0.2463
     12 N          62.7639   88.2261   12.0713 N.ar    1  UNL1       -0.2817
     13 C          63.4777   89.3747   12.7204 C.ar    1  UNL1        0.0796
     14 C          63.5193   90.8398   12.4016 C.ar    1  UNL1        0.0188
     15 C          64.3395   91.7683   13.2471 C.ar    1  UNL1        0.0016
     16 C          65.1182   91.2317   14.4115 C.ar    1  UNL1        0.0016
     17 C          65.0767   89.7666   14.7303 C.ar    1  UNL1        0.0188
     18 C          64.2564   88.8381   13.8847 C.ar    1  UNL1        0.0797
     19 C          64.6107   86.4205   14.9686 C.3     1  UNL1        0.1278
     20 C          64.7999   84.9718   14.6292 C.3     1  UNL1        0.0971
     21 C          62.5779   84.3631   15.8301 C.3     1  UNL1        0.0897
     22 N          63.7090   83.9844   14.9205 N.3     1  UNL1       -0.2687
     23 C          63.7491   82.6183   14.3022 C.3     1  UNL1        0.0897
     24 C          59.2966   89.7251    6.3284 C.3     1  UNL1        0.0795
     25 C          60.6279   90.0952    5.7448 C.3     1  UNL1        0.0264
     26 C          60.7380   91.2611    4.8073 C.3     1  UNL1        0.0729
     27 N          59.5166   92.0568    4.4535 N.3     1  UNL1       -0.2689
     28 C          58.1853   91.6867    5.0371 C.3     1  UNL1        0.0729
     29 C          58.0753   90.5209    5.9746 C.3     1  UNL1        0.0264
     30 C          59.6267   93.2225    3.5160 C.3     1  UNL1        0.0992
     31 C          60.2408   93.0391    2.1599 C.ar    1  UNL1       -0.0031
     32 C          59.3728   92.7086    0.9820 C.ar    1  UNL1        0.0178
     33 C          59.9869   92.5252   -0.3742 C.ar    1  UNL1        0.0986
     34 N          61.4689   92.6721   -0.5525 N.ar    1  UNL1       -0.2423
     35 C          62.3369   93.0026    0.6254 C.ar    1  UNL1        0.0986
     36 C          61.7229   93.1860    1.9816 C.ar    1  UNL1        0.0178
@<TRIPOS>BOND
     1    21    22    1
     2    22    23    1
     3    22    20    1
     4    20    19    1
     5    19     9    1
     6     9    10   ar
     7    10    11    2
     8    10    12   ar
     9    12     1    1
    10     1     2    1
    11     2     3    1
    12     3     4    1
    13     4     5   am
    14     5     6    2
    15     5    24    1
    16    24    25    1
    17    25    26    1
    18    26    27    1
    19    27    30    1
    20    30    31    1
    21    31    32   ar
    22    32    33   ar
    23    33    34   ar
    24    34    35   ar
    25    35    36   ar
    26    27    28    1
    27    28    29    1
    28     4     7    1
    29     7     8    1
    30    12    13   ar
    31    13    14   ar
    32    14    15   ar
    33    15    16   ar
    34    16    17   ar
    35    17    18   ar
    36    18     9   ar
    37     8     1    1
    38    18    13   ar
    39    29    24    1
    40    36    31   ar
@<TRIPOS>MOLECULE
*****
 36 40 0 0 0
SMALL
GASTEIGER

@<TRIPOS>ATOM
      1 C          61.9880   88.5065   10.8843 C.3     1  UNL1        0.0933
      2 C          62.0478   89.6460    9.9106 C.3     1  UNL1        0.0442
      3 C          61.1225   89.6733    8.7303 C.3     1  UNL1        0.0953
      4 N          60.1373   88.5612    8.5238 N.am    1  UNL1       -0.2794
      5 C          59.2120   88.5885    7.3435 C.2     1  UNL1        0.2252
      6 O          58.2269   87.4763    7.1369 O.2     1  UNL1       -0.2749
      7 C          60.0776   87.4218    9.4974 C.3     1  UNL1        0.0953
      8 C          61.0029   87.3945   10.6777 C.3     1  UNL1        0.0442
      9 N          64.4333   89.1787   13.8227 N.ar    1  UNL1       -0.2785
     10 C          63.6126   89.6630   12.6643 C.ar    1  UNL1        0.3315
     11 O          63.5092   91.0820   12.1891 O.2     1  UNL1       -0.2463
     12 N          62.9134   88.4792   12.0646 N.ar    1  UNL1       -0.2817
     13 C          63.3020   87.2633   12.8523 C.ar    1  UNL1        0.0796
     14 C          62.9218   85.8183   12.7205 C.ar    1  UNL1        0.0188
     15 C          63.4810   84.8056   13.6753 C.ar    1  UNL1        0.0016
     16 C          64.4204   85.2379   14.7619 C.ar    1  UNL1        0.0016
     17 C          64.8006   86.6829   14.8937 C.ar    1  UNL1        0.0188
     18 C          64.2413   87.6956   13.9388 C.ar    1  UNL1        0.0797
     19 C          65.2947   90.0283   14.7092 C.3     1  UNL1        0.1278
     20 C          64.7820   91.3437   15.2158 C.3     1  UNL1        0.0971
     21 C          63.0739   90.1495   16.7670 C.3     1  UNL1        0.0897
     22 N          63.8352   91.3822   16.3786 N.3     1  UNL1       -0.2687
     23 C          63.6498   92.6533   17.1531 C.3     1  UNL1        0.0897
     24 C          59.2718   89.7279    6.3699 C.3     1  UNL1        0.0795
     25 C          58.0233   90.4824    6.0206 C.3     1  UNL1        0.0264
     26 C          58.0832   91.6219    5.0468 C.3     1  UNL1        0.0729
     27 N          59.3917   92.0069    4.4225 N.3     1  UNL1       -0.2689
     28 C          60.6402   91.2525    4.7718 C.3     1  UNL1        0.0729
     29 C          60.5802   90.1130    5.7455 C.3     1  UNL1        0.0264
     30 C          59.4515   93.1464    3.4489 C.3     1  UNL1        0.0992
     31 C          60.1527   92.9736    2.1342 C.ar    1  UNL1       -0.0031
     32 C          59.3593   92.6965    0.8917 C.ar    1  UNL1        0.0178
     33 C          60.0604   92.5236   -0.4230 C.ar    1  UNL1        0.0986
     34 N          61.5551   92.6279   -0.4952 N.ar    1  UNL1       -0.2423
     35 C          62.3485   92.9050    0.7472 C.ar    1  UNL1        0.0986
     36 C          61.6473   93.0778    2.0619 C.ar    1  UNL1        0.0178
@<TRIPOS>BOND
     1    21    22    1
     2    22    23    1
     3    22    20    1
     4    20    19    1
     5    19     9    1
     6     9    10   ar
     7    10    11    2
     8    10    12   ar
     9    12     1    1
    10     1     2    1
    11     2     3    1
    12     3     4    1
    13     4     5   am
    14     5     6    2
    15     5    24    1
    16    24    25    1
    17    25    26    1
    18    26    27    1
    19    27    30    1
    20    30    31    1
    21    31    32   ar
    22    32    33   ar
    23    33    34   ar
    24    34    35   ar
    25    35    36   ar
    26    27    28    1
    27    28    29    1
    28     4     7    1
    29     7     8    1
    30    12    13   ar
    31    13    14   ar
    32    14    15   ar
    33    15    16   ar
    34    16    17   ar
    35    17    18   ar
    36    18     9   ar
    37     8     1    1
    38    18    13   ar
    39    29    24    1
    40    36    31   ar
@<TRIPOS>MOLECULE
*****
 36 40 0 0 0
SMALL
GASTEIGER

@<TRIPOS>ATOM
      1 C          60.7563   92.4562    3.2557 C.3     1  UNL1        0.0933
      2 C          61.4378   91.6782    4.3421 C.3     1  UNL1        0.0442
      3 C          60.6222   90.9046    5.3353 C.3     1  UNL1        0.0953
      4 N          59.1252   90.9089    5.2421 N.am    1  UNL1       -0.2794
      5 C          58.3096   90.1353    6.2352 C.2     1  UNL1        0.2252
      6 O          56.8125   90.1397    6.1420 O.2     1  UNL1       -0.2749
      7 C          58.4437   91.6869    4.1556 C.3     1  UNL1        0.0953
      8 C          59.2592   92.4605    3.1625 C.3     1  UNL1        0.0442
      9 N          63.4012   93.9495    0.8391 N.ar    1  UNL1       -0.2785
     10 C          62.9805   92.9227    1.8485 C.ar    1  UNL1        0.3315
     11 O          63.8210   91.7882    2.3550 O.2     1  UNL1       -0.2463
     12 N          61.5718   93.2298    2.2625 N.ar    1  UNL1       -0.2817
     13 C          61.1219   94.4462    1.5089 C.ar    1  UNL1        0.0796
     14 C          59.8288   95.2063    1.5102 C.ar    1  UNL1        0.0188
     15 C          59.6662   96.4112    0.6317 C.ar    1  UNL1        0.0016
     16 C          60.7968   96.8560   -0.2480 C.ar    1  UNL1        0.0016
     17 C          62.0900   96.0959   -0.2492 C.ar    1  UNL1        0.0188
     18 C          62.2525   94.8910    0.6292 C.ar    1  UNL1        0.0797
     19 C          64.7361   94.0219    0.1590 C.3     1  UNL1        0.1278
     20 C          65.0763   95.2022   -0.7018 C.3     1  UNL1        0.0971
     21 C          63.9400   94.0503   -2.7346 C.3     1  UNL1        0.0897
     22 N          64.7140   95.1983   -2.1574 N.3     1  UNL1       -0.2687
     23 C          65.1257   96.3423   -3.0359 C.3     1  UNL1        0.0897
     24 C          58.9912   89.3574    7.3216 C.3     1  UNL1        0.0795
     25 C          58.9314   87.8586    7.3214 C.3     1  UNL1        0.0264
     26 C          59.6131   87.0807    8.4079 C.3     1  UNL1        0.0729
     27 N          60.3544   87.8016    9.4945 N.3     1  UNL1       -0.2689
     28 C          60.4142   89.3004    9.4947 C.3     1  UNL1        0.0729
     29 C          59.7325   90.0783    8.4082 C.3     1  UNL1        0.0264
     30 C          61.0360   87.0237   10.5809 C.3     1  UNL1        0.0992
     31 C          61.9686   85.9029   10.2288 C.ar    1  UNL1       -0.0031
     32 C          62.5241   85.7978    8.8394 C.ar    1  UNL1        0.0178
     33 C          63.4566   84.6769    8.4873 C.ar    1  UNL1        0.0986
     34 N          63.8337   83.6612    9.5246 N.ar    1  UNL1       -0.2423
     35 C          63.2782   83.7663   10.9140 C.ar    1  UNL1        0.0986
     36 C          62.3457   84.8871   11.2661 C.ar    1  UNL1        0.0178
@<TRIPOS>BOND
     1    21    22    1
     2    22    23    1
     3    22    20    1
     4    20    19    1
     5    19     9    1
     6     9    10   ar
     7    10    11    2
     8    10    12   ar
     9    12     1    1
    10     1     2    1
    11     2     3    1
    12     3     4    1
    13     4     5   am
    14     5     6    2
    15     5    24    1
    16    24    25    1
    17    25    26    1
    18    26    27    1
    19    27    30    1
    20    30    31    1
    21    31    32   ar
    22    32    33   ar
    23    33    34   ar
    24    34    35   ar
    25    35    36   ar
    26    27    28    1
    27    28    29    1
    28     4     7    1
    29     7     8    1
    30    12    13   ar
    31    13    14   ar
    32    14    15   ar
    33    15    16   ar
    34    16    17   ar
    35    17    18   ar
    36    18     9   ar
    37     8     1    1
    38    18    13   ar
    39    29    24    1
    40    36    31   ar
@<TRIPOS>MOLECULE
*****
 36 40 0 0 0
SMALL
GASTEIGER

@<TRIPOS>ATOM
      1 C          63.2875   85.8681   14.4754 C.3     1  UNL1        0.0933
      2 C          63.8027   86.8580   13.4730 C.3     1  UNL1        0.0442
      3 C          64.0588   88.2776   13.8843 C.3     1  UNL1        0.0953
      4 N          63.7997   88.7074   15.2978 N.am    1  UNL1       -0.2794
      5 C          64.0558   90.1270   15.7091 C.2     1  UNL1        0.2252
      6 O          63.7967   90.5567   17.1227 O.2     1  UNL1       -0.2749
      7 C          63.2845   87.7174   16.3001 C.3     1  UNL1        0.0953
      8 C          63.0284   86.2978   15.8889 C.3     1  UNL1        0.0442
      9 N          62.3539   82.1184   14.1101 N.ar    1  UNL1       -0.2785
     10 C          62.4223   83.3785   14.9210 C.ar    1  UNL1        0.3315
     11 O          61.9624   83.5403   16.3395 O.2     1  UNL1       -0.2463
     12 N          63.0314   84.4485   14.0641 N.ar    1  UNL1       -0.2817
     13 C          63.3394   83.8497   12.7237 C.ar    1  UNL1        0.0796
     14 C          63.9470   84.4296   11.4810 C.ar    1  UNL1        0.0188
     15 C          64.1359   83.5695   10.2668 C.ar    1  UNL1        0.0016
     16 C          63.7172   82.1294   10.2952 C.ar    1  UNL1        0.0016
     17 C          63.1096   81.5495   11.5379 C.ar    1  UNL1        0.0188
     18 C          62.9207   82.4096   12.7522 C.ar    1  UNL1        0.0797
     19 C          61.8136   80.7988   14.5755 C.3     1  UNL1        0.1278
     20 C          60.8490   80.0378   13.7152 C.3     1  UNL1        0.0971
     21 C          58.4778   81.0031   14.1575 C.3     1  UNL1        0.0897
     22 N          59.4316   79.8454   14.1669 N.3     1  UNL1       -0.2687
     23 C          58.9679   78.4955   14.6279 C.3     1  UNL1        0.0897
     24 C          64.5710   91.1168   14.7068 C.3     1  UNL1        0.0795
     25 C          63.9807   91.1652   13.3287 C.3     1  UNL1        0.0264
     26 C          64.4960   92.1551   12.3263 C.3     1  UNL1        0.0729
     27 N          65.6016   93.0966   12.7021 N.3     1  UNL1       -0.2689
     28 C          66.1919   93.0482   14.0802 C.3     1  UNL1        0.0729
     29 C          65.6767   92.0583   15.0825 C.3     1  UNL1        0.0264
     30 C          66.1168   94.0864   11.6997 C.3     1  UNL1        0.0992
     31 C          66.9419   93.6173   10.5382 C.ar    1  UNL1       -0.0031
     32 C          67.1578   94.5188    9.3589 C.ar    1  UNL1        0.0178
     33 C          67.9829   94.0498    8.1974 C.ar    1  UNL1        0.0986
     34 N          68.5922   92.6792    8.2152 N.ar    1  UNL1       -0.2423
     35 C          68.3763   91.7777    9.3945 C.ar    1  UNL1        0.0986
     36 C          67.5512   92.2468   10.5560 C.ar    1  UNL1        0.0178
@<TRIPOS>BOND
     1    21    22    1
     2    22    23    1
     3    22    20    1
     4    20    19    1
     5    19     9    1
     6     9    10   ar
     7    10    11    2
     8    10    12   ar
     9    12     1    1
    10     1     2    1
    11     2     3    1
    12     3     4    1
    13     4     5   am
    14     5     6    2
    15     5    24    1
    16    24    25    1
    17    25    26    1
    18    26    27    1
    19    27    30    1
    20    30    31    1
    21    31    32   ar
    22    32    33   ar
    23    33    34   ar
    24    34    35   ar
    25    35    36   ar
    26    27    28    1
    27    28    29    1
    28     4     7    1
    29     7     8    1
    30    12    13   ar
    31    13    14   ar
    32    14    15   ar
    33    15    16   ar
    34    16    17   ar
    35    17    18   ar
    36    18     9   ar
    37     8     1    1
    38    18    13   ar
    39    29    24    1
    40    36    31   ar
@<TRIPOS>MOLECULE
*****
 36 40 0 0 0
SMALL
GASTEIGER

@<TRIPOS>ATOM
      1 C          61.1147   92.4476    2.6121 C.3     1  UNL1        0.0933
      2 C          61.7564   91.4575    3.5385 C.3     1  UNL1        0.0442
      3 C          60.9506   90.8233    4.6333 C.3     1  UNL1        0.0953
      4 N          59.5032   91.1793    4.8018 N.am    1  UNL1       -0.2794
      5 C          58.6974   90.5451    5.8966 C.2     1  UNL1        0.2252
      6 O          57.2501   90.9010    6.0651 O.2     1  UNL1       -0.2749
      7 C          58.8616   92.1693    3.8754 C.3     1  UNL1        0.0953
      8 C          59.6674   92.8034    2.7806 C.3     1  UNL1        0.0442
      9 N          62.7266   93.7238   -0.6800 N.ar    1  UNL1       -0.2785
     10 C          61.6921   92.9144    0.0443 C.ar    1  UNL1        0.3315
     11 O          60.6177   92.0836   -0.5926 O.2     1  UNL1       -0.2463
     12 N          61.9205   93.0817    1.5173 N.ar    1  UNL1       -0.2817
     13 C          63.0963   93.9944    1.7034 C.ar    1  UNL1        0.0796
     14 C          63.7776   94.5154    2.9339 C.ar    1  UNL1        0.0188
     15 C          64.9571   95.4333    2.8064 C.ar    1  UNL1        0.0016
     16 C          65.4552   95.8301    1.4484 C.ar    1  UNL1        0.0016
     17 C          64.7739   95.3091    0.2178 C.ar    1  UNL1        0.0188
     18 C          63.5945   94.3912    0.3453 C.ar    1  UNL1        0.0797
     19 C          62.8684   93.8445   -2.1684 C.3     1  UNL1        0.1278
     20 C          63.9065   93.0380   -2.8908 C.3     1  UNL1        0.0971
     21 C          65.0451   92.6486   -5.1934 C.3     1  UNL1        0.0897
     22 N          64.5528   93.5842   -4.1294 N.3     1  UNL1       -0.2687
     23 C          64.7067   95.0660   -4.3038 C.3     1  UNL1        0.0897
     24 C          59.3391   89.5551    6.8229 C.3     1  UNL1        0.0795
     25 C          59.2343   88.0858    6.5398 C.3     1  UNL1        0.0264
     26 C          59.8760   87.0958    7.4662 C.3     1  UNL1        0.0729
     27 N          60.6226   87.5751    8.6757 N.3     1  UNL1       -0.2689
     28 C          60.7274   89.0444    8.9588 C.3     1  UNL1        0.0729
     29 C          60.0857   90.0344    8.0325 C.3     1  UNL1        0.0264
     30 C          61.2642   86.5851    9.6020 C.3     1  UNL1        0.0992
     31 C          62.0504   87.0657   10.7856 C.ar    1  UNL1       -0.0031
     32 C          62.5835   86.0797   11.7824 C.ar    1  UNL1        0.0178
     33 C          63.3697   86.5603   12.9660 C.ar    1  UNL1        0.0986
     34 N          63.6228   88.0269   13.1528 N.ar    1  UNL1       -0.2423
     35 C          63.0898   89.0129   12.1560 C.ar    1  UNL1        0.0986
     36 C          62.3036   88.5323   10.9724 C.ar    1  UNL1        0.0178
@<TRIPOS>BOND
     1    21    22    1
     2    22    23    1
     3    22    20    1
     4    20    19    1
     5    19     9    1
     6     9    10   ar
     7    10    11    2
     8    10    12   ar
     9    12     1    1
    10     1     2    1
    11     2     3    1
    12     3     4    1
    13     4     5   am
    14     5     6    2
    15     5    24    1
    16    24    25    1
    17    25    26    1
    18    26    27    1
    19    27    30    1
    20    30    31    1
    21    31    32   ar
    22    32    33   ar
    23    33    34   ar
    24    34    35   ar
    25    35    36   ar
    26    27    28    1
    27    28    29    1
    28     4     7    1
    29     7     8    1
    30    12    13   ar
    31    13    14   ar
    32    14    15   ar
    33    15    16   ar
    34    16    17   ar
    35    17    18   ar
    36    18     9   ar
    37     8     1    1
    38    18    13   ar
    39    29    24    1
    40    36    31   ar
@<TRIPOS>MOLECULE
*****
 36 40 0 0 0
SMALL
GASTEIGER

@<TRIPOS>ATOM
      1 C          61.0497   92.3918    2.6221 C.3     1  UNL1        0.0933
      2 C          61.7165   91.6083    3.7138 C.3     1  UNL1        0.0442
      3 C          60.8932   90.9982    4.8093 C.3     1  UNL1        0.0953
      4 N          59.4033   91.1716    4.8131 N.am    1  UNL1       -0.2794
      5 C          58.5800   90.5616    5.9086 C.2     1  UNL1        0.2252
      6 O          57.0901   90.7350    5.9124 O.2     1  UNL1       -0.2749
      7 C          58.7366   91.9551    3.7215 C.3     1  UNL1        0.0953
      8 C          59.5599   92.5652    2.6260 C.3     1  UNL1        0.0442
      9 N          62.6970   93.6184   -0.6714 N.ar    1  UNL1       -0.2785
     10 C          61.6402   92.8391    0.0538 C.ar    1  UNL1        0.3315
     11 O          60.5433   92.0376   -0.5822 O.2     1  UNL1       -0.2463
     12 N          61.8730   93.0019    1.5266 N.ar    1  UNL1       -0.2817
     13 C          63.0736   93.8818    1.7117 C.ar    1  UNL1        0.0796
     14 C          63.7689   94.3853    2.9417 C.ar    1  UNL1        0.0188
     15 C          64.9735   95.2699    2.8133 C.ar    1  UNL1        0.0016
     16 C          65.4827   95.6510    1.4548 C.ar    1  UNL1        0.0016
     17 C          64.7874   95.1474    0.2248 C.ar    1  UNL1        0.0188
     18 C          63.5829   94.2629    0.3532 C.ar    1  UNL1        0.0797
     19 C          62.8424   93.7332   -2.1599 C.3     1  UNL1        0.1278
     20 C          63.8286   92.8673   -2.8862 C.3     1  UNL1        0.0971
     21 C          64.6261   94.8560   -4.3556 C.3     1  UNL1        0.0897
     22 N          64.5094   93.3790   -4.1210 N.3     1  UNL1       -0.2687
     23 C          65.0735   92.4139   -5.1211 C.3     1  UNL1        0.0897
     24 C          59.2467   89.7781    7.0002 C.3     1  UNL1        0.0795
     25 C          60.0927   90.4821    8.0194 C.3     1  UNL1        0.0264
     26 C          60.7594   89.6985    9.1110 C.3     1  UNL1        0.0729
     27 N          60.5801   88.2110    9.1834 N.3     1  UNL1       -0.2689
     28 C          59.7342   87.5070    8.1641 C.3     1  UNL1        0.0729
     29 C          59.0675   88.2906    7.0726 C.3     1  UNL1        0.0264
     30 C          61.2469   87.4275   10.2749 C.3     1  UNL1        0.0992
     31 C          62.0497   86.2059    9.9385 C.ar    1  UNL1       -0.0031
     32 C          62.4291   85.2368   11.0187 C.ar    1  UNL1        0.0178
     33 C          63.2319   84.0152   10.6822 C.ar    1  UNL1        0.0986
     34 N          63.6554   83.7628    9.2656 N.ar    1  UNL1       -0.2423
     35 C          63.2761   84.7320    8.1854 C.ar    1  UNL1        0.0986
     36 C          62.4732   85.9535    8.5218 C.ar    1  UNL1        0.0178
@<TRIPOS>BOND
     1    21    22    1
     2    22    23    1
     3    22    20    1
     4    20    19    1
     5    19     9    1
     6     9    10   ar
     7    10    11    2
     8    10    12   ar
     9    12     1    1
    10     1     2    1
    11     2     3    1
    12     3     4    1
    13     4     5   am
    14     5     6    2
    15     5    24    1
    16    24    25    1
    17    25    26    1
    18    26    27    1
    19    27    30    1
    20    30    31    1
    21    31    32   ar
    22    32    33   ar
    23    33    34   ar
    24    34    35   ar
    25    35    36   ar
    26    27    28    1
    27    28    29    1
    28     4     7    1
    29     7     8    1
    30    12    13   ar
    31    13    14   ar
    32    14    15   ar
    33    15    16   ar
    34    16    17   ar
    35    17    18   ar
    36    18     9   ar
    37     8     1    1
    38    18    13   ar
    39    29    24    1
    40    36    31   ar
@<TRIPOS>MOLECULE
*****
 36 40 0 0 0
SMALL
GASTEIGER

@<TRIPOS>ATOM
      1 C          64.2011   89.4381   14.3274 C.3     1  UNL1        0.0933
      2 C          64.1772   88.0947   13.6603 C.3     1  UNL1        0.0442
      3 C          63.7635   86.8794   14.4361 C.3     1  UNL1        0.0953
      4 N          63.3737   87.0073   15.8789 N.am    1  UNL1       -0.2794
      5 C          62.9600   85.7920   16.6547 C.2     1  UNL1        0.2252
      6 O          62.5702   85.9200   18.0975 O.2     1  UNL1       -0.2749
      7 C          63.3976   88.3507   16.5459 C.3     1  UNL1        0.0953
      8 C          63.8114   89.5660   15.7701 C.3     1  UNL1        0.0442
      9 N          65.7088   92.7248   12.9170 N.ar    1  UNL1       -0.2785
     10 C          65.5980   91.6935   14.0005 C.ar    1  UNL1        0.3315
     11 O          66.3401   91.7009   15.3041 O.2     1  UNL1       -0.2463
     12 N          64.6148   90.6534   13.5516 N.ar    1  UNL1       -0.2817
     13 C          64.1179   91.0419   12.1906 C.ar    1  UNL1        0.0796
     14 C          63.1372   90.3954   11.2579 C.ar    1  UNL1        0.0188
     15 C          62.8326   91.0291    9.9329 C.ar    1  UNL1        0.0016
     16 C          63.5087   92.3093    9.5407 C.ar    1  UNL1        0.0016
     17 C          64.4894   92.9559   10.4735 C.ar    1  UNL1        0.0188
     18 C          64.7940   92.3222   11.7984 C.ar    1  UNL1        0.0797
     19 C          66.5811   93.9448   12.9468 C.3     1  UNL1        0.1278
     20 C          66.3219   95.0756   11.9961 C.3     1  UNL1        0.0971
     21 C          66.9848   96.3644    9.8398 C.3     1  UNL1        0.0897
     22 N          67.0203   95.1150   10.6692 N.3     1  UNL1       -0.2687
     23 C          67.7541   93.9051   10.1716 C.3     1  UNL1        0.0897
     24 C          62.9361   84.4488   15.9876 C.3     1  UNL1        0.0795
     25 C          61.6391   83.8794   15.4941 C.3     1  UNL1        0.0264
     26 C          61.6152   82.5360   14.8270 C.3     1  UNL1        0.0729
     27 N          62.8884   81.7621   14.6535 N.3     1  UNL1       -0.2689
     28 C          64.1854   82.3315   15.1470 C.3     1  UNL1        0.0729
     29 C          64.2092   83.6748   15.8141 C.3     1  UNL1        0.0264
     30 C          62.8645   80.4189   13.9864 C.3     1  UNL1        0.0992
     31 C          62.9170   80.3233   12.4904 C.ar    1  UNL1       -0.0031
     32 C          62.6503   79.0119   11.8128 C.ar    1  UNL1        0.0178
     33 C          62.7027   78.9164   10.3167 C.ar    1  UNL1        0.0986
     34 N          63.0219   80.1322    9.4983 N.ar    1  UNL1       -0.2423
     35 C          63.2886   81.4436   10.1759 C.ar    1  UNL1        0.0986
     36 C          63.2361   81.5391   11.6719 C.ar    1  UNL1        0.0178
@<TRIPOS>BOND
     1    21    22    1
     2    22    23    1
     3    22    20    1
     4    20    19    1
     5    19     9    1
     6     9    10   ar
     7    10    11    2
     8    10    12   ar
     9    12     1    1
    10     1     2    1
    11     2     3    1
    12     3     4    1
    13     4     5   am
    14     5     6    2
    15     5    24    1
    16    24    25    1
    17    25    26    1
    18    26    27    1
    19    27    30    1
    20    30    31    1
    21    31    32   ar
    22    32    33   ar
    23    33    34   ar
    24    34    35   ar
    25    35    36   ar
    26    27    28    1
    27    28    29    1
    28     4     7    1
    29     7     8    1
    30    12    13   ar
    31    13    14   ar
    32    14    15   ar
    33    15    16   ar
    34    16    17   ar
    35    17    18   ar
    36    18     9   ar
    37     8     1    1
    38    18    13   ar
    39    29    24    1
    40    36    31   ar
