@<TRIPOS>MOLECULE
*****
 13 13 0 0 0
SMALL
GASTEIGER

@<TRIPOS>ATOM
      1 C          61.5968   85.8617   11.1251 C.3     1  UNL1        0.0521
      2 C          61.0425   86.7815   10.0779 C.ar    1  UNL1        0.0594
      3 C          60.4868   86.2188    8.8034 C.ar    1  UNL1        0.0154
      4 C          59.9325   87.1387    7.7562 C.ar    1  UNL1        0.0110
      5 C          59.9338   88.6213    7.9836 C.ar    1  UNL1        0.0608
      6 C          60.4896   89.1841    9.2581 C.ar    1  UNL1        0.1066
      7 N          61.0439   88.2642   10.3053 N.ar    1  UNL1       -0.2475
      8 C          59.3795   89.5412    6.9364 C.1     1  UNL1       -0.0614
      9 C          58.8252   90.4611    5.8893 C.1     1  UNL1       -0.0689
     10 C          58.2708   91.3809    4.8421 C.3     1  UNL1        0.1432
     11 N          56.9836   92.1100    5.0897 N.3     1  UNL1       -0.3102
     12 H          56.2183   91.4382    5.1491 H       1  UNL1        0.1198
     13 H          56.8075   92.7590    4.3228 H       1  UNL1        0.1198
@<TRIPOS>BOND
     1     1     2    1
     2     2     3   ar
     3     3     4   ar
     4     4     5   ar
     5     5     8    1
     6     8     9    3
     7     9    10    1
     8    10    11    1
     9     5     6   ar
    10     6     7   ar
    11     7     2   ar
    12    11    12    1
    13    11    13    1
@<TRIPOS>MOLECULE
*****
 13 13 0 0 0
SMALL
GASTEIGER

@<TRIPOS>ATOM
      1 C          63.1837   81.1109   13.6030 C.3     1  UNL1        0.0521
      2 C          63.4105   82.5836   13.7748 C.ar    1  UNL1        0.0594
      3 C          63.0757   83.5291   12.6595 C.ar    1  UNL1        0.0154
      4 C          63.3025   85.0019   12.8312 C.ar    1  UNL1        0.0110
      5 C          63.8641   85.5292   14.1183 C.ar    1  UNL1        0.0608
      6 C          64.1989   84.5837   15.2336 C.ar    1  UNL1        0.1066
      7 N          63.9721   83.1109   15.0618 N.ar    1  UNL1       -0.2475
      8 C          64.0909   87.0020   14.2900 C.1     1  UNL1       -0.0614
      9 C          64.3177   88.4747   14.4618 C.1     1  UNL1       -0.0689
     10 C          64.5445   89.9475   14.6335 C.3     1  UNL1        0.1432
     11 N          63.3772   90.8893   14.6489 N.3     1  UNL1       -0.3102
     12 H          62.9298   90.8913   13.7322 H       1  UNL1        0.1198
     13 H          63.7025   91.8303   14.8705 H       1  UNL1        0.1198
@<TRIPOS>BOND
     1     1     2    1
     2     2     3   ar
     3     3     4   ar
     4     4     5   ar
     5     5     8    1
     6     8     9    3
     7     9    10    1
     8    10    11    1
     9     5     6   ar
    10     6     7   ar
    11     7     2   ar
    12    11    12    1
    13    11    13    1
@<TRIPOS>MOLECULE
*****
 13 13 0 0 0
SMALL
GASTEIGER

@<TRIPOS>ATOM
      1 C          64.8175   91.6883   13.2338 C.3     1  UNL1        0.0521
      2 C          63.9896   90.8080   12.3451 C.ar    1  UNL1        0.0594
      3 C          63.5450   91.3047   11.0014 C.ar    1  UNL1        0.0154
      4 C          62.7171   90.4244   10.1127 C.ar    1  UNL1        0.0110
      5 C          62.3339   89.0475   10.5677 C.ar    1  UNL1        0.0608
      6 C          62.7785   88.5508   11.9114 C.ar    1  UNL1        0.1066
      7 N          63.6064   89.4311   12.8001 N.ar    1  UNL1       -0.2475
      8 C          61.5061   88.1672    9.6790 C.1     1  UNL1       -0.0614
      9 C          60.6782   87.2869    8.7903 C.1     1  UNL1       -0.0689
     10 C          59.8503   86.4067    7.9017 C.3     1  UNL1        0.1432
     11 N          58.3741   86.6419    7.7779 N.3     1  UNL1       -0.3102
     12 H          57.9235   86.4527    8.6732 H       1  UNL1        0.1198
     13 H          57.9894   86.0212    7.0658 H       1  UNL1        0.1198
@<TRIPOS>BOND
     1     1     2    1
     2     2     3   ar
     3     3     4   ar
     4     4     5   ar
     5     5     8    1
     6     8     9    3
     7     9    10    1
     8    10    11    1
     9     5     6   ar
    10     6     7   ar
    11     7     2   ar
    12    11    12    1
    13    11    13    1
@<TRIPOS>MOLECULE
*****
 13 13 0 0 0
SMALL
GASTEIGER

@<TRIPOS>ATOM
      1 C          62.1687   84.1152    5.7130 C.3     1  UNL1        0.0521
      2 C          61.6853   84.9737    6.8441 C.ar    1  UNL1        0.0594
      3 C          62.6225   85.3511    7.9527 C.ar    1  UNL1        0.0154
      4 C          62.1391   86.2096    9.0838 C.ar    1  UNL1        0.0110
      5 C          60.7185   86.6906    9.1062 C.ar    1  UNL1        0.0608
      6 C          59.7813   86.3132    7.9975 C.ar    1  UNL1        0.1066
      7 N          60.2647   85.4547    6.8665 N.ar    1  UNL1       -0.2475
      8 C          60.2351   87.5491   10.2373 C.1     1  UNL1       -0.0614
      9 C          59.7517   88.4076   11.3684 C.1     1  UNL1       -0.0689
     10 C          59.2683   89.2660   12.4995 C.3     1  UNL1        0.1432
     11 N          58.2513   88.7325   13.4644 N.3     1  UNL1       -0.3102
     12 H          57.3684   88.5788   12.9774 H       1  UNL1        0.1198
     13 H          58.1114   89.4058   14.2177 H       1  UNL1        0.1198
@<TRIPOS>BOND
     1     1     2    1
     2     2     3   ar
     3     3     4   ar
     4     4     5   ar
     5     5     8    1
     6     8     9    3
     7     9    10    1
     8    10    11    1
     9     5     6   ar
    10     6     7   ar
    11     7     2   ar
    12    11    12    1
    13    11    13    1
@<TRIPOS>MOLECULE
*****
 13 13 0 0 0
SMALL
GASTEIGER

@<TRIPOS>ATOM
      1 C          68.0436   93.4491   15.4938 C.3     1  UNL1        0.0521
      2 C          66.9969   92.8806   14.5821 C.ar    1  UNL1        0.0594
      3 C          66.1728   91.7083   15.0254 C.ar    1  UNL1        0.0154
      4 C          65.1261   91.1398   14.1137 C.ar    1  UNL1        0.0110
      5 C          64.9035   91.7436   12.7588 C.ar    1  UNL1        0.0608
      6 C          65.7276   92.9159   12.3155 C.ar    1  UNL1        0.1066
      7 N          66.7743   93.4844   13.2272 N.ar    1  UNL1       -0.2475
      8 C          63.8567   91.1750   11.8471 C.1     1  UNL1       -0.0614
      9 C          62.8100   90.6065   10.9354 C.1     1  UNL1       -0.0689
     10 C          61.7633   90.0380   10.0238 C.3     1  UNL1        0.1432
     11 N          60.3553   90.5515   10.0861 N.3     1  UNL1       -0.3102
     12 H          59.9451   90.3103   10.9883 H       1  UNL1        0.1198
     13 H          59.8056   90.1280    9.3385 H       1  UNL1        0.1198
@<TRIPOS>BOND
     1     1     2    1
     2     2     3   ar
     3     3     4   ar
     4     4     5   ar
     5     5     8    1
     6     8     9    3
     7     9    10    1
     8    10    11    1
     9     5     6   ar
    10     6     7   ar
    11     7     2   ar
    12    11    12    1
    13    11    13    1
@<TRIPOS>MOLECULE
*****
 13 13 0 0 0
SMALL
GASTEIGER

@<TRIPOS>ATOM
      1 C          64.8284   84.5306   14.7831 C.3     1  UNL1        0.0521
      2 C          63.9825   84.8951   13.5992 C.ar    1  UNL1        0.0594
      3 C          63.6043   83.8459   12.5961 C.ar    1  UNL1        0.0154
      4 C          62.7585   84.2103   11.4122 C.ar    1  UNL1        0.0110
      5 C          62.2908   85.6240   11.2313 C.ar    1  UNL1        0.0608
      6 C          62.6689   86.6732   12.2344 C.ar    1  UNL1        0.1066
      7 N          63.5148   86.3087   13.4183 N.ar    1  UNL1       -0.2475
      8 C          61.4449   85.9885   10.0474 C.1     1  UNL1       -0.0614
      9 C          60.5990   86.3529    8.8635 C.1     1  UNL1       -0.0689
     10 C          59.7531   86.7174    7.6796 C.3     1  UNL1        0.1432
     11 N          58.2582   86.7317    7.8019 N.3     1  UNL1       -0.3102
     12 H          57.9215   85.7831    7.9667 H       1  UNL1        0.1198
     13 H          57.8500   87.0924    6.9395 H       1  UNL1        0.1198
@<TRIPOS>BOND
     1     1     2    1
     2     2     3   ar
     3     3     4   ar
     4     4     5   ar
     5     5     8    1
     6     8     9    3
     7     9    10    1
     8    10    11    1
     9     5     6   ar
    10     6     7   ar
    11     7     2   ar
    12    11    12    1
    13    11    13    1
@<TRIPOS>MOLECULE
*****
 13 13 0 0 0
SMALL
GASTEIGER

@<TRIPOS>ATOM
      1 C          59.3842   86.4657    7.6707 C.3     1  UNL1        0.0521
      2 C          60.2071   87.1467    8.7238 C.ar    1  UNL1        0.0594
      3 C          61.0158   86.3305    9.6879 C.ar    1  UNL1        0.0154
      4 C          61.8388   87.0115   10.7410 C.ar    1  UNL1        0.0110
      5 C          61.8530   88.5088   10.8299 C.ar    1  UNL1        0.0608
      6 C          61.0443   89.3250    9.8657 C.ar    1  UNL1        0.1066
      7 N          60.2213   88.6440    8.8127 N.ar    1  UNL1       -0.2475
      8 C          62.6759   89.1898   11.8830 C.1     1  UNL1       -0.0614
      9 C          63.4989   89.8709   12.9361 C.1     1  UNL1       -0.0689
     10 C          64.3218   90.5519   13.9891 C.3     1  UNL1        0.1432
     11 N          63.6593   91.4372   15.0026 N.3     1  UNL1       -0.3102
     12 H          63.2686   92.2555   14.5356 H       1  UNL1        0.1198
     13 H          64.3469   91.7363   15.6941 H       1  UNL1        0.1198
@<TRIPOS>BOND
     1     1     2    1
     2     2     3   ar
     3     3     4   ar
     4     4     5   ar
     5     5     8    1
     6     8     9    3
     7     9    10    1
     8    10    11    1
     9     5     6   ar
    10     6     7   ar
    11     7     2   ar
    12    11    12    1
    13    11    13    1
@<TRIPOS>MOLECULE
*****
 13 13 0 0 0
SMALL
GASTEIGER

@<TRIPOS>ATOM
      1 C          59.3605   88.1458    7.6558 C.3     1  UNL1        0.0521
      2 C          60.1790   87.4250    8.6856 C.ar    1  UNL1        0.0594
      3 C          61.1212   86.3356    8.2667 C.ar    1  UNL1        0.0154
      4 C          61.9397   85.6148    9.2965 C.ar    1  UNL1        0.0110
      5 C          61.8159   85.9833   10.7453 C.ar    1  UNL1        0.0608
      6 C          60.8737   87.0727   11.1641 C.ar    1  UNL1        0.1066
      7 N          60.0553   87.7935   10.1343 N.ar    1  UNL1       -0.2475
      8 C          62.6344   85.2625   11.7751 C.1     1  UNL1       -0.0614
      9 C          63.4529   84.5417   12.8049 C.1     1  UNL1       -0.0689
     10 C          64.2713   83.8209   13.8347 C.3     1  UNL1        0.1432
     11 N          65.5268   84.4458   14.3667 N.3     1  UNL1       -0.3102
     12 H          66.2162   84.5142   13.6181 H       1  UNL1        0.1198
     13 H          65.9002   83.8697   15.1211 H       1  UNL1        0.1198
@<TRIPOS>BOND
     1     1     2    1
     2     2     3   ar
     3     3     4   ar
     4     4     5   ar
     5     5     8    1
     6     8     9    3
     7     9    10    1
     8    10    11    1
     9     5     6   ar
    10     6     7   ar
    11     7     2   ar
    12    11    12    1
    13    11    13    1
@<TRIPOS>MOLECULE
*****
 13 13 0 0 0
SMALL
GASTEIGER

@<TRIPOS>ATOM
      1 C          58.9962   89.3612    6.9327 C.3     1  UNL1        0.0521
      2 C          59.7746   88.4021    7.7837 C.ar    1  UNL1        0.0594
      3 C          60.5692   88.9093    8.9505 C.ar    1  UNL1        0.0154
      4 C          61.3476   87.9502    9.8015 C.ar    1  UNL1        0.0110
      5 C          61.3314   86.4840    9.4857 C.ar    1  UNL1        0.0608
      6 C          60.5369   85.9768    8.3190 C.ar    1  UNL1        0.1066
      7 N          59.7585   86.9359    7.4679 N.ar    1  UNL1       -0.2475
      8 C          62.1098   85.5249   10.3368 C.1     1  UNL1       -0.0614
      9 C          62.8882   84.5658   11.1878 C.1     1  UNL1       -0.0689
     10 C          63.6666   83.6067   12.0388 C.3     1  UNL1        0.1432
     11 N          64.8950   82.9437   11.4900 N.3     1  UNL1       -0.3102
     12 H          64.6326   82.3202   10.7265 H       1  UNL1        0.1198
     13 H          65.3493   82.4054   12.2277 H       1  UNL1        0.1198
@<TRIPOS>BOND
     1     1     2    1
     2     2     3   ar
     3     3     4   ar
     4     4     5   ar
     5     5     8    1
     6     8     9    3
     7     9    10    1
     8    10    11    1
     9     5     6   ar
    10     6     7   ar
    11     7     2   ar
    12    11    12    1
    13    11    13    1
