@<TRIPOS>MOLECULE
*****
 53 57 0 0 0
SMALL
GASTEIGER

@<TRIPOS>ATOM
      1 C          60.5937   88.8714    9.1620 C.3     1  UNL1        0.0760
      2 C          59.4311   89.3506    6.8884 C.2     1  UNL1        0.2407
      3 O          59.8154   87.9840    6.4039 O.2     1  UNL1       -0.2733
      4 N          59.8203   89.7943    8.2675 N.am    1  UNL1       -0.3043
      5 H          59.5681   90.6912    8.5855 H       1  UNL1        0.1494
      6 N          61.1195   92.2215    3.4910 N.am    1  UNL1       -0.2566
      7 C          62.5723   92.3441    3.1385 C.3     1  UNL1        0.1168
      8 C          60.6885   91.2854    4.5808 C.2     1  UNL1        0.3079
      9 O          61.7104   90.4718    5.3183 O.2     1  UNL1       -0.2523
     10 N          59.2357   91.1628    4.9332 N.am    1  UNL1       -0.2547
     11 C          58.1057   91.9080    4.2869 C.3     1  UNL1        0.1245
     12 C          56.8293   91.4793    4.9481 C.3     1  UNL1        0.1325
     13 O          55.4535   91.9739    4.6131 O.3     1  UNL1       -0.3826
     14 C          57.1705   90.4691    6.0031 C.3     1  UNL1        0.0602
     15 C          58.6577   90.2735    5.9940 C.3     1  UNL1        0.1555
     16 H          55.5093   92.6227    3.8942 H       1  UNL1        0.2104
     17 C          60.0976   93.0352    2.7535 C.3     1  UNL1        0.1413
     18 C          59.0841   92.8126   -0.9866 C.ar    1  UNL1        0.0875
     19 N          58.7218   92.9321    0.4641 N.ar    1  UNL1       -0.2453
     20 C          59.9928   92.9332    1.2606 C.ar    1  UNL1        0.0858
     21 C          61.1406   92.8143    0.3023 C.ar    1  UNL1        0.0530
     22 S          60.5790   92.7398   -1.0866 S.2     1  UNL1       -0.0705
     23 C          58.5587   93.2231   -3.4977 C.3     1  UNL1        0.0069
     24 C          58.1206   92.7729   -2.1356 C.3     1  UNL1        0.0465
     25 C          56.7190   92.2828   -1.9225 C.3     1  UNL1        0.0069
     26 C          61.7250   89.4037    9.9906 C.3     1  UNL1        0.0216
     27 C          61.5815   89.5028   11.4804 C.3     1  UNL1        0.0217
     28 C          62.7968   89.6853   12.3405 C.3     1  UNL1        0.0792
     29 N          63.5958   88.4917   12.7730 N.am    1  UNL1       -0.2720
     30 C          63.8938   88.2755   14.2271 C.2     1  UNL1        0.4019
     31 O          63.3930   89.2529   15.2488 O.2     1  UNL1       -0.2264
     32 H          63.9245   87.8502   12.1024 H       1  UNL1        0.1527
     33 O          64.6928   87.0819   14.6596 O.3     1  UNL1       -0.4291
     34 C          64.0852   86.0667   15.5816 C.3     1  UNL1        0.2447
     35 C          63.6921   84.7175   15.0571 C.ar    1  UNL1        0.0714
     36 C          62.4064   84.0002   15.3441 C.ar    1  UNL1        0.1053
     37 N          62.4354   82.6880   14.6180 N.ar    1  UNL1       -0.2350
     38 C          63.7392   82.5943   13.8821 C.ar    1  UNL1        0.1343
     39 S          64.5158   83.8485   14.1536 S.2     1  UNL1       -0.0652
     40 C          63.2132   91.0614   12.7682 C.3     1  UNL1        0.0460
     41 C          64.5281   91.6224   12.3137 C.ar    1  UNL1       -0.0205
     42 C          65.6635   91.7532   13.2851 C.ar    1  UNL1       -0.0042
     43 C          66.9784   92.3142   12.8306 C.ar    1  UNL1       -0.0003
     44 C          67.1577   92.7443   11.4048 C.ar    1  UNL1       -0.0000
     45 C          66.0222   92.6134   10.4335 C.ar    1  UNL1       -0.0003
     46 C          64.7074   92.0525   10.8880 C.ar    1  UNL1       -0.0042
     47 C          60.2358   87.4162    9.2277 C.3     1  UNL1        0.0459
     48 C          61.2984   86.3942    9.5039 C.ar    1  UNL1       -0.0205
     49 C          61.4758   85.8527   10.8914 C.ar    1  UNL1       -0.0042
     50 C          62.5384   84.8307   11.1676 C.ar    1  UNL1       -0.0003
     51 C          63.4238   84.3502   10.0562 C.ar    1  UNL1       -0.0000
     52 C          63.2465   84.8917    8.6685 C.ar    1  UNL1       -0.0003
     53 C          62.1838   85.9137    8.3924 C.ar    1  UNL1       -0.0042
@<TRIPOS>BOND
     1    23    24    1
     2    24    25    1
     3    24    18    1
     4    18    19   ar
     5    19    20   ar
     6    20    17    1
     7    17     6    1
     8     6     7    1
     9     6     8   am
    10     8     9    2
    11     8    10   am
    12    10    11    1
    13    11    12    1
    14    12    13    1
    15    12    14    1
    16    14    15    1
    17    15     2    1
    18     2     3    2
    19     2     4   am
    20     4     1    1
    21     1    26    1
    22    26    27    1
    23    28    27    1
    24    28    40    1
    25    40    41    1
    26    41    42   ar
    27    42    43   ar
    28    43    44   ar
    29    44    45   ar
    30    45    46   ar
    31    28    29    1
    32    29    30   am
    33    30    31    2
    34    30    33    1
    35    33    34    1
    36    34    35    1
    37    35    36   ar
    38    36    37   ar
    39    37    38   ar
    40    38    39   ar
    41     1    47    1
    42    47    48    1
    43    48    49   ar
    44    49    50   ar
    45    50    51   ar
    46    51    52   ar
    47    52    53   ar
    48    20    21   ar
    49    21    22   ar
    50    22    18   ar
    51    15    10    1
    52    46    41   ar
    53    39    35   ar
    54    53    48   ar
    55    13    16    1
    56     4     5    1
    57    29    32    1
@<TRIPOS>MOLECULE
*****
 53 57 0 0 0
SMALL
GASTEIGER

@<TRIPOS>ATOM
      1 C          63.8833   87.2061   13.8757 C.3     1  UNL1        0.0760
      2 C          62.5396   86.2042   11.8906 C.2     1  UNL1        0.2407
      3 O          61.6654   85.4616   12.8571 O.2     1  UNL1       -0.2733
      4 N          63.6486   87.0765   12.3999 N.am    1  UNL1       -0.3043
      5 H          64.2224   87.5639   11.7655 H       1  UNL1        0.1494
      6 N          60.0308   89.0963    9.0661 N.am    1  UNL1       -0.2566
      7 C          59.3239   90.3309    9.5412 C.3     1  UNL1        0.1168
      8 C          60.7969   88.2494   10.0386 C.2     1  UNL1        0.3079
      9 O          60.8561   88.6374   11.4864 O.2     1  UNL1       -0.2523
     10 N          61.5038   87.0148    9.5635 N.am    1  UNL1       -0.2547
     11 C          61.5338   86.5033    8.1536 C.3     1  UNL1        0.1245
     12 C          62.3534   85.2472    8.1336 C.3     1  UNL1        0.1325
     13 O          62.6452   84.4041    6.9278 O.3     1  UNL1       -0.3826
     14 C          62.8299   84.9822    9.5310 C.3     1  UNL1        0.0602
     15 C          62.3048   86.0746   10.4147 C.3     1  UNL1        0.1555
     16 H          62.2197   84.7955    6.1489 H       1  UNL1        0.2104
     17 C          59.9716   88.7083    7.6182 C.3     1  UNL1        0.1413
     18 C          59.9739   91.3407    4.7659 C.ar    1  UNL1        0.0875
     19 N          60.6900   90.3488    5.6338 N.ar    1  UNL1       -0.2453
     20 C          59.6880   89.7475    6.5743 C.ar    1  UNL1        0.0858
     21 C          58.3528   90.3678    6.2877 C.ar    1  UNL1        0.0530
     22 S          58.5294   91.3525    5.1700 S.2     1  UNL1       -0.0705
     23 C          62.0302   91.9658    3.3060 C.3     1  UNL1        0.0069
     24 C          60.5936   92.1745    3.6838 C.3     1  UNL1        0.0465
     25 C          59.7767   93.2168    2.9795 C.3     1  UNL1        0.0069
     26 C          63.5198   88.4772   14.5842 C.3     1  UNL1        0.0216
     27 C          63.2645   89.7281   13.7967 C.3     1  UNL1        0.0217
     28 C          64.1934   90.8987   13.9264 C.3     1  UNL1        0.0792
     29 N          64.3898   91.8321   12.7687 N.am    1  UNL1       -0.2720
     30 C          64.0346   91.3898   11.3800 C.2     1  UNL1        0.4019
     31 O          63.4829   90.0141   11.1492 O.2     1  UNL1       -0.2264
     32 H          64.7519   92.7350   12.9202 H       1  UNL1        0.1527
     33 O          64.2309   92.3231   10.2223 O.3     1  UNL1       -0.4291
     34 C          65.0866   93.5449   10.3807 C.3     1  UNL1        0.2447
     35 C          66.5404   93.4950   10.0148 C.ar    1  UNL1        0.0714
     36 C          67.3564   94.6374    9.4866 C.ar    1  UNL1        0.1053
     37 N          68.7538   94.1424    9.2581 N.ar    1  UNL1       -0.2350
     38 C          68.8015   92.6939    9.6451 C.ar    1  UNL1        0.1343
     39 S          67.4335   92.2938   10.1127 S.2     1  UNL1       -0.0652
     40 C          64.9259   91.1360   15.2136 C.3     1  UNL1        0.0460
     41 C          66.2892   91.7615   15.1966 C.ar    1  UNL1       -0.0205
     42 C          67.2705   91.3921   14.1239 C.ar    1  UNL1       -0.0042
     43 C          68.6337   92.0175   14.1069 C.ar    1  UNL1       -0.0003
     44 C          69.0157   93.0124   15.1625 C.ar    1  UNL1       -0.0000
     45 C          68.0344   93.3818   16.2352 C.ar    1  UNL1       -0.0003
     46 C          66.6712   92.7563   16.2522 C.ar    1  UNL1       -0.0042
     47 C          64.4816   86.0644   14.6431 C.3     1  UNL1        0.0459
     48 C          64.0539   84.6571   14.3488 C.ar    1  UNL1       -0.0205
     49 C          64.7147   83.8880   13.2435 C.ar    1  UNL1       -0.0042
     50 C          64.2870   82.4807   12.9492 C.ar    1  UNL1       -0.0003
     51 C          63.1985   81.8425   13.7603 C.ar    1  UNL1       -0.0000
     52 C          62.5377   82.6116   14.8657 C.ar    1  UNL1       -0.0003
     53 C          62.9653   84.0189   15.1599 C.ar    1  UNL1       -0.0042
@<TRIPOS>BOND
     1    23    24    1
     2    24    25    1
     3    24    18    1
     4    18    19   ar
     5    19    20   ar
     6    20    17    1
     7    17     6    1
     8     6     7    1
     9     6     8   am
    10     8     9    2
    11     8    10   am
    12    10    11    1
    13    11    12    1
    14    12    13    1
    15    12    14    1
    16    14    15    1
    17    15     2    1
    18     2     3    2
    19     2     4   am
    20     4     1    1
    21     1    26    1
    22    26    27    1
    23    28    27    1
    24    28    40    1
    25    40    41    1
    26    41    42   ar
    27    42    43   ar
    28    43    44   ar
    29    44    45   ar
    30    45    46   ar
    31    28    29    1
    32    29    30   am
    33    30    31    2
    34    30    33    1
    35    33    34    1
    36    34    35    1
    37    35    36   ar
    38    36    37   ar
    39    37    38   ar
    40    38    39   ar
    41     1    47    1
    42    47    48    1
    43    48    49   ar
    44    49    50   ar
    45    50    51   ar
    46    51    52   ar
    47    52    53   ar
    48    20    21   ar
    49    21    22   ar
    50    22    18   ar
    51    15    10    1
    52    46    41   ar
    53    39    35   ar
    54    53    48   ar
    55    13    16    1
    56     4     5    1
    57    29    32    1
@<TRIPOS>MOLECULE
*****
 53 57 0 0 0
SMALL
GASTEIGER

@<TRIPOS>ATOM
      1 C          62.5926   85.4284   12.6880 C.3     1  UNL1        0.0760
      2 C          62.6412   85.3132   10.0929 C.2     1  UNL1        0.2407
      3 O          64.1124   85.0239   10.1333 O.2     1  UNL1       -0.2733
      4 N          61.8812   85.5155   11.3703 N.am    1  UNL1       -0.3043
      5 H          60.9156   85.7054   11.3438 H       1  UNL1        0.1494
      6 N          59.9473   88.8772    8.4567 N.am    1  UNL1       -0.2566
      7 C          59.6702   90.1399    9.2174 C.3     1  UNL1        0.1168
      8 C          60.8117   87.8112    9.0621 C.2     1  UNL1        0.3079
      9 O          61.3989   88.0080   10.4284 O.2     1  UNL1       -0.2523
     10 N          61.0889   86.5486    8.3014 N.am    1  UNL1       -0.2547
     11 C          60.5738   86.2123    6.9333 C.3     1  UNL1        0.1245
     12 C          61.0964   84.8563    6.5616 C.3     1  UNL1        0.1325
     13 O          60.8280   84.1298    5.2771 O.3     1  UNL1       -0.3826
     14 C          61.9344   84.3545    7.6999 C.3     1  UNL1        0.0602
     15 C          61.9298   85.4003    8.7752 C.3     1  UNL1        0.1555
     16 H          60.2575   84.6732    4.7113 H       1  UNL1        0.2104
     17 C          59.3601   88.6805    7.0905 C.3     1  UNL1        0.1413
     18 C          59.9328   91.4945    4.4793 C.ar    1  UNL1        0.0875
     19 N          60.4373   90.3396    5.2928 N.ar    1  UNL1       -0.2453
     20 C          59.3004   89.8288    6.1273 C.ar    1  UNL1        0.0858
     21 C          58.0933   90.6679    5.8296 C.ar    1  UNL1        0.0530
     22 S          58.4840   91.6974    4.8111 S.2     1  UNL1       -0.0705
     23 C          60.1050   93.4652    2.7950 C.3     1  UNL1        0.0069
     24 C          60.7360   92.3043    3.5050 C.3     1  UNL1        0.0465
     25 C          62.1702   91.9532    3.2408 C.3     1  UNL1        0.0069
     26 C          63.5739   86.4922   13.0823 C.3     1  UNL1        0.0216
     27 C          63.3467   87.9144   12.6634 C.3     1  UNL1        0.0217
     28 C          64.0021   89.0326   13.4187 C.3     1  UNL1        0.0792
     29 N          63.9856   90.4250   12.8612 N.am    1  UNL1       -0.2720
     30 C          65.0815   91.3869   13.2133 C.2     1  UNL1        0.4019
     31 O          66.1938   90.9563   14.1229 O.2     1  UNL1       -0.2264
     32 H          63.2556   90.7076   12.2641 H       1  UNL1        0.1527
     33 O          65.0651   92.7793   12.6557 O.3     1  UNL1       -0.4291
     34 C          65.0954   92.9932   11.1714 C.3     1  UNL1        0.2447
     35 C          66.3976   93.2693   10.4799 C.ar    1  UNL1        0.0714
     36 C          67.5843   92.3529   10.4363 C.ar    1  UNL1        0.1053
     37 N          68.6619   93.0275    9.6400 N.ar    1  UNL1       -0.2350
     38 C          68.1411   94.3608    9.1916 C.ar    1  UNL1        0.1343
     39 S          66.7417   94.5102    9.7106 S.2     1  UNL1       -0.0652
     40 C          64.6738   88.7582   14.7315 C.3     1  UNL1        0.0460
     41 C          63.9929   87.9023   15.7581 C.ar    1  UNL1       -0.0205
     42 C          63.0745   88.5272   16.7659 C.ar    1  UNL1       -0.0042
     43 C          62.3936   87.6713   17.7924 C.ar    1  UNL1       -0.0003
     44 C          62.6312   86.1903   17.8110 C.ar    1  UNL1       -0.0000
     45 C          63.5496   85.5653   16.8031 C.ar    1  UNL1       -0.0003
     46 C          64.2305   86.4213   15.7767 C.ar    1  UNL1       -0.0042
     47 C          62.3227   84.2775   13.6114 C.3     1  UNL1        0.0459
     48 C          62.4569   82.8690   13.1134 C.ar    1  UNL1       -0.0205
     49 C          61.9911   81.7250   13.9644 C.ar    1  UNL1       -0.0042
     50 C          62.1253   80.3164   13.4664 C.ar    1  UNL1       -0.0003
     51 C          62.7254   80.0519   12.1174 C.ar    1  UNL1       -0.0000
     52 C          63.1913   81.1959   11.2663 C.ar    1  UNL1       -0.0003
     53 C          63.0571   82.6044   11.7643 C.ar    1  UNL1       -0.0042
@<TRIPOS>BOND
     1    23    24    1
     2    24    25    1
     3    24    18    1
     4    18    19   ar
     5    19    20   ar
     6    20    17    1
     7    17     6    1
     8     6     7    1
     9     6     8   am
    10     8     9    2
    11     8    10   am
    12    10    11    1
    13    11    12    1
    14    12    13    1
    15    12    14    1
    16    14    15    1
    17    15     2    1
    18     2     3    2
    19     2     4   am
    20     4     1    1
    21     1    26    1
    22    26    27    1
    23    28    27    1
    24    28    40    1
    25    40    41    1
    26    41    42   ar
    27    42    43   ar
    28    43    44   ar
    29    44    45   ar
    30    45    46   ar
    31    28    29    1
    32    29    30   am
    33    30    31    2
    34    30    33    1
    35    33    34    1
    36    34    35    1
    37    35    36   ar
    38    36    37   ar
    39    37    38   ar
    40    38    39   ar
    41     1    47    1
    42    47    48    1
    43    48    49   ar
    44    49    50   ar
    45    50    51   ar
    46    51    52   ar
    47    52    53   ar
    48    20    21   ar
    49    21    22   ar
    50    22    18   ar
    51    15    10    1
    52    46    41   ar
    53    39    35   ar
    54    53    48   ar
    55    13    16    1
    56     4     5    1
    57    29    32    1
@<TRIPOS>MOLECULE
*****
 53 57 0 0 0
SMALL
GASTEIGER

@<TRIPOS>ATOM
      1 C          63.3858   85.4827   12.5232 C.3     1  UNL1        0.0760
      2 C          63.0959   85.1339    9.9650 C.2     1  UNL1        0.2407
      3 O          64.5020   84.6193    9.8758 O.2     1  UNL1       -0.2733
      4 N          62.5378   85.5656   11.2888 N.am    1  UNL1       -0.3043
      5 H          61.6149   85.9034   11.3473 H       1  UNL1        0.1494
      6 N          60.1570   88.6440    8.6695 N.am    1  UNL1       -0.2566
      7 C          59.9301   89.8905    9.4723 C.3     1  UNL1        0.1168
      8 C          61.1065   87.5943    9.1662 C.2     1  UNL1        0.3079
      9 O          61.8292   87.7914   10.4659 O.2     1  UNL1       -0.2523
     10 N          61.3334   86.3478    8.3634 N.am    1  UNL1       -0.2547
     11 C          60.6857   86.0133    7.0524 C.3     1  UNL1        0.1245
     12 C          61.1998   84.6756    6.6094 C.3     1  UNL1        0.1325
     13 O          60.8159   83.9565    5.3503 O.3     1  UNL1       -0.3826
     14 C          62.1652   84.1834    7.6465 C.3     1  UNL1        0.0602
     15 C          62.2478   85.2168    8.7306 C.3     1  UNL1        0.1555
     16 H          60.1756   84.4910    4.8550 H       1  UNL1        0.2104
     17 C          59.4343   88.4470    7.3699 C.3     1  UNL1        0.1413
     18 C          59.8811   91.2495    4.7220 C.ar    1  UNL1        0.0875
     19 N          60.4350   90.1249    5.5456 N.ar    1  UNL1       -0.2453
     20 C          59.3240   89.5805    6.3937 C.ar    1  UNL1        0.0858
     21 C          58.0835   90.3687    6.0943 C.ar    1  UNL1        0.0530
     22 S          58.4276   91.4002    5.0611 S.2     1  UNL1       -0.0705
     23 C          59.9602   93.1905    2.9968 C.3     1  UNL1        0.0069
     24 C          60.6461   92.0780    3.7329 C.3     1  UNL1        0.0465
     25 C          62.0971   91.7939    3.4798 C.3     1  UNL1        0.0069
     26 C          63.5416   86.6837   13.4082 C.3     1  UNL1        0.0216
     27 C          63.0580   88.0254   12.9436 C.3     1  UNL1        0.0217
     28 C          63.7777   89.2707   13.3693 C.3     1  UNL1        0.0792
     29 N          64.4214   90.1535   12.3415 N.am    1  UNL1       -0.2720
     30 C          63.5760   91.0577   11.4942 C.2     1  UNL1        0.4019
     31 O          62.0871   91.0791   11.6748 O.2     1  UNL1       -0.2264
     32 H          65.3986   90.1394   12.2230 H       1  UNL1        0.1527
     33 O          64.2196   91.9405   10.4663 O.3     1  UNL1       -0.4291
     34 C          65.0733   93.0956   10.8985 C.3     1  UNL1        0.2447
     35 C          66.4487   93.2676   10.3251 C.ar    1  UNL1        0.0714
     36 C          67.0177   94.5371    9.7643 C.ar    1  UNL1        0.1053
     37 N          68.4172   94.2544    9.3044 N.ar    1  UNL1       -0.2350
     38 C          68.7131   92.8102    9.5809 C.ar    1  UNL1        0.1343
     39 S          67.4965   92.2003   10.2117 S.2     1  UNL1       -0.0652
     40 C          63.8538   89.6333   14.8229 C.3     1  UNL1        0.0460
     41 C          64.8006   90.7029   15.2805 C.ar    1  UNL1       -0.0205
     42 C          66.1588   90.8201   14.6549 C.ar    1  UNL1       -0.0042
     43 C          67.1056   91.8897   15.1125 C.ar    1  UNL1       -0.0003
     44 C          66.6942   92.8421   16.1959 C.ar    1  UNL1       -0.0000
     45 C          65.3360   92.7249   16.8216 C.ar    1  UNL1       -0.0003
     46 C          64.3892   91.6553   16.3639 C.ar    1  UNL1       -0.0042
     47 C          64.0781   84.1986   12.8727 C.3     1  UNL1        0.0459
     48 C          63.2804   82.9409   13.0509 C.ar    1  UNL1       -0.0205
     49 C          62.3728   82.7899   14.2356 C.ar    1  UNL1       -0.0042
     50 C          61.5751   81.5322   14.4138 C.ar    1  UNL1       -0.0003
     51 C          61.6849   80.4254   13.4073 C.ar    1  UNL1       -0.0000
     52 C          62.5925   80.5764   12.2226 C.ar    1  UNL1       -0.0003
     53 C          63.3903   81.8341   12.0444 C.ar    1  UNL1       -0.0042
@<TRIPOS>BOND
     1    23    24    1
     2    24    25    1
     3    24    18    1
     4    18    19   ar
     5    19    20   ar
     6    20    17    1
     7    17     6    1
     8     6     7    1
     9     6     8   am
    10     8     9    2
    11     8    10   am
    12    10    11    1
    13    11    12    1
    14    12    13    1
    15    12    14    1
    16    14    15    1
    17    15     2    1
    18     2     3    2
    19     2     4   am
    20     4     1    1
    21     1    26    1
    22    26    27    1
    23    28    27    1
    24    28    40    1
    25    40    41    1
    26    41    42   ar
    27    42    43   ar
    28    43    44   ar
    29    44    45   ar
    30    45    46   ar
    31    28    29    1
    32    29    30   am
    33    30    31    2
    34    30    33    1
    35    33    34    1
    36    34    35    1
    37    35    36   ar
    38    36    37   ar
    39    37    38   ar
    40    38    39   ar
    41     1    47    1
    42    47    48    1
    43    48    49   ar
    44    49    50   ar
    45    50    51   ar
    46    51    52   ar
    47    52    53   ar
    48    20    21   ar
    49    21    22   ar
    50    22    18   ar
    51    15    10    1
    52    46    41   ar
    53    39    35   ar
    54    53    48   ar
    55    13    16    1
    56     4     5    1
    57    29    32    1
@<TRIPOS>MOLECULE
*****
 53 57 0 0 0
SMALL
GASTEIGER

@<TRIPOS>ATOM
      1 C          63.1670   85.9850   12.9474 C.3     1  UNL1        0.0760
      2 C          63.8347   88.0284   14.4065 C.2     1  UNL1        0.2407
      3 O          63.4718   87.2630   15.6444 O.2     1  UNL1       -0.2733
      4 N          63.6823   87.3893   13.0579 N.am    1  UNL1       -0.3043
      5 H          63.9204   87.8916   12.2454 H       1  UNL1        0.1494
      6 N          63.7806   91.4306   11.0811 N.am    1  UNL1       -0.2566
      7 C          63.2195   91.2499    9.7018 C.3     1  UNL1        0.1168
      8 C          63.7499   90.2930   12.0583 C.2     1  UNL1        0.3079
      9 O          63.1580   88.9747   11.6561 O.2     1  UNL1       -0.2523
     10 N          64.3110   90.4737   13.4376 N.am    1  UNL1       -0.2547
     11 C          64.9316   91.7271   13.9798 C.3     1  UNL1        0.1245
     12 C          65.3542   91.4607   15.3942 C.3     1  UNL1        0.1325
     13 O          66.0194   92.4403   16.3148 O.3     1  UNL1       -0.3826
     14 C          64.9947   90.0428   15.7261 C.3     1  UNL1        0.0602
     15 C          64.3500   89.4327   14.5169 C.3     1  UNL1        0.1555
     16 H          66.1391   93.2861   15.8552 H       1  UNL1        0.2104
     17 C          64.3725   92.7490   11.4833 C.3     1  UNL1        0.1413
     18 C          66.4851   94.9971    9.1279 C.ar    1  UNL1        0.0875
     19 N          65.2204   94.7154    9.8835 N.ar    1  UNL1       -0.2453
     20 C          65.3925   93.4121   10.6058 C.ar    1  UNL1        0.0858
     21 C          66.7636   92.8883   10.2966 C.ar    1  UNL1        0.0530
     22 S          67.4390   93.8678    9.3832 S.2     1  UNL1       -0.0705
     23 C          68.0975   96.8553    8.2927 C.3     1  UNL1        0.0069
     24 C          66.7497   96.1973    8.2680 C.3     1  UNL1        0.0465
     25 C          65.6666   96.7396    7.3833 C.3     1  UNL1        0.0069
     26 C          61.8319   85.7235   12.3157 C.3     1  UNL1        0.0216
     27 C          61.2270   86.7394   11.3928 C.3     1  UNL1        0.0217
     28 C          61.7328   86.8705    9.9867 C.3     1  UNL1        0.0792
     29 N          61.3871   88.0839    9.1753 N.am    1  UNL1       -0.2720
     30 C          59.9951   88.2595    8.6446 C.2     1  UNL1        0.4019
     31 O          58.9490   87.2218    8.9251 O.2     1  UNL1       -0.2264
     32 H          62.0737   88.7650    8.9912 H       1  UNL1        0.1527
     33 O          59.6494   89.4729    7.8332 O.3     1  UNL1       -0.4291
     34 C          59.1190   89.3166    6.4389 C.3     1  UNL1        0.2447
     35 C          58.9383   90.5227    5.5656 C.ar    1  UNL1        0.0714
     36 C          57.6324   91.1790    5.2279 C.ar    1  UNL1        0.1053
     37 N          57.9187   92.3462    4.3303 N.ar    1  UNL1       -0.2350
     38 C          59.4015   92.4113    4.1133 C.ar    1  UNL1        0.1343
     39 S          60.0316   91.2843    4.8767 S.2     1  UNL1       -0.0652
     40 C          62.5844   85.7883    9.3920 C.3     1  UNL1        0.0460
     41 C          62.2769   85.2596    8.0223 C.ar    1  UNL1       -0.0205
     42 C          60.8526   85.1340    7.5690 C.ar    1  UNL1       -0.0042
     43 C          60.5453   84.6053    6.1994 C.ar    1  UNL1       -0.0003
     44 C          61.6623   84.2021    5.2830 C.ar    1  UNL1       -0.0000
     45 C          63.0866   84.3276    5.7363 C.ar    1  UNL1       -0.0003
     46 C          63.3939   84.8563    7.1059 C.ar    1  UNL1       -0.0042
     47 C          63.9869   84.8420   13.4687 C.3     1  UNL1        0.0459
     48 C          63.4376   83.4467   13.4314 C.ar    1  UNL1       -0.0205
     49 C          63.9285   82.4748   12.3998 C.ar    1  UNL1       -0.0042
     50 C          63.3792   81.0794   12.3625 C.ar    1  UNL1       -0.0003
     51 C          62.3391   80.6561   13.3569 C.ar    1  UNL1       -0.0000
     52 C          61.8482   81.6280   14.3886 C.ar    1  UNL1       -0.0003
     53 C          62.3974   83.0233   14.4259 C.ar    1  UNL1       -0.0042
@<TRIPOS>BOND
     1    23    24    1
     2    24    25    1
     3    24    18    1
     4    18    19   ar
     5    19    20   ar
     6    20    17    1
     7    17     6    1
     8     6     7    1
     9     6     8   am
    10     8     9    2
    11     8    10   am
    12    10    11    1
    13    11    12    1
    14    12    13    1
    15    12    14    1
    16    14    15    1
    17    15     2    1
    18     2     3    2
    19     2     4   am
    20     4     1    1
    21     1    26    1
    22    26    27    1
    23    28    27    1
    24    28    40    1
    25    40    41    1
    26    41    42   ar
    27    42    43   ar
    28    43    44   ar
    29    44    45   ar
    30    45    46   ar
    31    28    29    1
    32    29    30   am
    33    30    31    2
    34    30    33    1
    35    33    34    1
    36    34    35    1
    37    35    36   ar
    38    36    37   ar
    39    37    38   ar
    40    38    39   ar
    41     1    47    1
    42    47    48    1
    43    48    49   ar
    44    49    50   ar
    45    50    51   ar
    46    51    52   ar
    47    52    53   ar
    48    20    21   ar
    49    21    22   ar
    50    22    18   ar
    51    15    10    1
    52    46    41   ar
    53    39    35   ar
    54    53    48   ar
    55    13    16    1
    56     4     5    1
    57    29    32    1
@<TRIPOS>MOLECULE
*****
 53 57 0 0 0
SMALL
GASTEIGER

@<TRIPOS>ATOM
      1 C          63.7637   85.0577   13.4977 C.3     1  UNL1        0.0760
      2 C          62.2984   85.5360   11.4062 C.2     1  UNL1        0.2407
      3 O          61.1636   85.9492   12.2958 O.2     1  UNL1       -0.2733
      4 N          63.5985   85.0902   12.0072 N.am    1  UNL1       -0.3043
      5 H          64.3433   84.8189   11.4233 H       1  UNL1        0.1494
      6 N          60.0472   88.8081    8.7867 N.am    1  UNL1       -0.2566
      7 C          59.3654   90.0171    9.3551 C.3     1  UNL1        0.1168
      8 C          60.7306   87.8337    9.6997 C.2     1  UNL1        0.3079
      9 O          60.7319   88.0684   11.1813 O.2     1  UNL1       -0.2523
     10 N          61.4125   86.6247    9.1313 N.am    1  UNL1       -0.2547
     11 C          61.4935   86.2594    7.6787 C.3     1  UNL1        0.1245
     12 C          62.2642   84.9775    7.5653 C.3     1  UNL1        0.1325
     13 O          62.5835   84.2504    6.2929 O.3     1  UNL1       -0.3826
     14 C          62.6595   84.5505    8.9479 C.3     1  UNL1        0.0602
     15 C          62.1331   85.5685    9.9157 C.3     1  UNL1        0.1555
     16 H          62.2130   84.7376    5.5404 H       1  UNL1        0.2104
     17 C          60.0459   88.5733    7.3051 C.3     1  UNL1        0.1413
     18 C          59.9979   91.4263    4.6740 C.ar    1  UNL1        0.0875
     19 N          60.7179   90.3374    5.4127 N.ar    1  UNL1       -0.2453
     20 C          59.7484   89.7051    6.3667 C.ar    1  UNL1        0.0858
     21 C          58.4292   90.4032    6.2176 C.ar    1  UNL1        0.0530
     22 S          58.5833   91.4670    5.1714 S.2     1  UNL1       -0.0705
     23 C          59.7691   93.4273    3.0327 C.3     1  UNL1        0.0069
     24 C          60.5887   92.3181    3.6224 C.3     1  UNL1        0.0465
     25 C          61.9992   92.1006    3.1605 C.3     1  UNL1        0.0069
     26 C          63.5600   86.3071   14.3023 C.3     1  UNL1        0.0216
     27 C          64.6011   87.3869   14.2873 C.3     1  UNL1        0.0217
     28 C          64.1964   88.8160   14.0777 C.3     1  UNL1        0.0792
     29 N          64.6739   89.8771   15.0244 N.am    1  UNL1       -0.2720
     30 C          63.7645   90.3826   16.1049 C.2     1  UNL1        0.4019
     31 O          62.3776   89.8270   16.2387 O.2     1  UNL1       -0.2264
     32 H          65.5841   90.2418   14.9365 H       1  UNL1        0.1527
     33 O          64.2419   91.4438   17.0515 O.3     1  UNL1       -0.4291
     34 C          64.7996   92.7296   16.5172 C.3     1  UNL1        0.2447
     35 C          66.1501   92.7476   15.8645 C.ar    1  UNL1        0.0714
     36 C          66.4741   93.3397   14.5250 C.ar    1  UNL1        0.1053
     37 N          67.9379   93.1347   14.2694 N.ar    1  UNL1       -0.2350
     38 C          68.5185   92.4158   15.4509 C.ar    1  UNL1        0.1343
     39 S          67.4136   92.1766   16.4368 S.2     1  UNL1       -0.0652
     40 C          63.3144   89.1840   12.9217 C.3     1  UNL1        0.0460
     41 C          63.6883   90.3291   12.0277 C.ar    1  UNL1       -0.0205
     42 C          64.7784   91.2748   12.4366 C.ar    1  UNL1       -0.0042
     43 C          65.1523   92.4198   11.5427 C.ar    1  UNL1       -0.0003
     44 C          64.4360   92.6191   10.2399 C.ar    1  UNL1       -0.0000
     45 C          63.3458   91.6734    9.8311 C.ar    1  UNL1       -0.0003
     46 C          62.9720   90.5284   10.7250 C.ar    1  UNL1       -0.0042
     47 C          64.1326   83.7757   14.1836 C.3     1  UNL1        0.0459
     48 C          63.3460   82.5274   13.9137 C.ar    1  UNL1       -0.0205
     49 C          63.9078   81.4666   13.0142 C.ar    1  UNL1       -0.0042
     50 C          63.1211   80.2183   12.7443 C.ar    1  UNL1       -0.0003
     51 C          61.7727   80.0307   13.3739 C.ar    1  UNL1       -0.0000
     52 C          61.2108   81.0915   14.2735 C.ar    1  UNL1       -0.0003
     53 C          61.9975   82.3398   14.5434 C.ar    1  UNL1       -0.0042
@<TRIPOS>BOND
     1    23    24    1
     2    24    25    1
     3    24    18    1
     4    18    19   ar
     5    19    20   ar
     6    20    17    1
     7    17     6    1
     8     6     7    1
     9     6     8   am
    10     8     9    2
    11     8    10   am
    12    10    11    1
    13    11    12    1
    14    12    13    1
    15    12    14    1
    16    14    15    1
    17    15     2    1
    18     2     3    2
    19     2     4   am
    20     4     1    1
    21     1    26    1
    22    26    27    1
    23    28    27    1
    24    28    40    1
    25    40    41    1
    26    41    42   ar
    27    42    43   ar
    28    43    44   ar
    29    44    45   ar
    30    45    46   ar
    31    28    29    1
    32    29    30   am
    33    30    31    2
    34    30    33    1
    35    33    34    1
    36    34    35    1
    37    35    36   ar
    38    36    37   ar
    39    37    38   ar
    40    38    39   ar
    41     1    47    1
    42    47    48    1
    43    48    49   ar
    44    49    50   ar
    45    50    51   ar
    46    51    52   ar
    47    52    53   ar
    48    20    21   ar
    49    21    22   ar
    50    22    18   ar
    51    15    10    1
    52    46    41   ar
    53    39    35   ar
    54    53    48   ar
    55    13    16    1
    56     4     5    1
    57    29    32    1
@<TRIPOS>MOLECULE
*****
 53 57 0 0 0
SMALL
GASTEIGER

@<TRIPOS>ATOM
      1 C          62.4535   86.8415   11.0566 C.3     1  UNL1        0.0760
      2 C          62.3378   89.0402   12.4359 C.2     1  UNL1        0.2407
      3 O          60.9077   89.2243   12.0224 O.2     1  UNL1       -0.2733
      4 N          63.1107   87.8488   11.9529 N.am    1  UNL1       -0.3043
      5 H          64.0493   87.7280   12.2243 H       1  UNL1        0.1494
      6 N          65.0854   92.7159   11.1802 N.am    1  UNL1       -0.2566
      7 C          65.4398   93.0556    9.7629 C.3     1  UNL1        0.1168
      8 C          64.2100   91.5332   11.4717 C.2     1  UNL1        0.3079
      9 O          63.6890   90.6902   10.3455 O.2     1  UNL1       -0.2523
     10 N          63.8556   91.1934   12.8890 N.am    1  UNL1       -0.2547
     11 C          64.2995   91.9399   14.1120 C.3     1  UNL1        0.1245
     12 C          63.7133   91.2553   15.3111 C.3     1  UNL1        0.1325
     13 O          63.9004   91.6679   16.7410 O.3     1  UNL1       -0.3826
     14 C          62.9071   90.0858   14.8291 C.3     1  UNL1        0.0602
     15 C          62.9950   90.0475   13.3322 C.3     1  UNL1        0.1555
     16 H          64.4654   92.4555   16.7790 H       1  UNL1        0.2104
     17 C          65.6064   93.5589   12.3064 C.3     1  UNL1        0.1413
     18 C          68.4721   92.9179   14.8443 C.ar    1  UNL1        0.0875
     19 N          67.2676   93.6913   14.3962 N.ar    1  UNL1       -0.2453
     20 C          66.7871   93.0947   13.1066 C.ar    1  UNL1        0.0858
     21 C          67.6946   91.9526   12.7577 C.ar    1  UNL1        0.0530
     22 S          68.7361   91.8432   13.8316 S.2     1  UNL1       -0.0705
     23 C          69.6681   92.0304   16.9732 C.3     1  UNL1        0.0069
     24 C          69.2723   93.1740   16.0870 C.3     1  UNL1        0.0465
     25 C          69.6767   94.5738   16.4434 C.3     1  UNL1        0.0069
     26 C          61.7775   85.6399   11.6475 C.3     1  UNL1        0.0216
     27 C          62.0076   84.2821   11.0532 C.3     1  UNL1        0.0217
     28 C          63.3358   83.6053   11.2206 C.3     1  UNL1        0.0792
     29 N          64.2931   84.0821   12.2724 N.am    1  UNL1       -0.2720
     30 C          64.0439   83.7583   13.7157 C.2     1  UNL1        0.4019
     31 O          62.8373   82.9578   14.1072 O.2     1  UNL1       -0.2264
     32 H          65.0851   84.6075   12.0154 H       1  UNL1        0.1527
     33 O          65.0012   84.2351   14.7675 O.3     1  UNL1       -0.4291
     34 C          64.9164   85.6438   15.2757 C.3     1  UNL1        0.2447
     35 C          63.7419   86.0726   16.1045 C.ar    1  UNL1        0.0714
     36 C          62.6006   85.1996   16.5347 C.ar    1  UNL1        0.1053
     37 N          61.6559   86.0372   17.3446 N.ar    1  UNL1       -0.2350
     38 C          62.2134   87.4280   17.4150 C.ar    1  UNL1        0.1343
     39 S          63.5027   87.4499   16.6486 S.2     1  UNL1       -0.0652
     40 C          63.7066   82.4518   10.3364 C.3     1  UNL1        0.0460
     41 C          63.2772   81.0609   10.6985 C.ar    1  UNL1       -0.0205
     42 C          63.1701   80.0083    9.6352 C.ar    1  UNL1       -0.0042
     43 C          62.7407   78.6175    9.9974 C.ar    1  UNL1       -0.0003
     44 C          62.4185   78.2792   11.4228 C.ar    1  UNL1       -0.0000
     45 C          62.5257   79.3318   12.4860 C.ar    1  UNL1       -0.0003
     46 C          62.9550   80.7226   12.1239 C.ar    1  UNL1       -0.0042
     47 C          62.4723   87.0359    9.5693 C.3     1  UNL1        0.0459
     48 C          61.2056   87.3758    8.8413 C.ar    1  UNL1       -0.0205
     49 C          60.3551   86.2826    8.2655 C.ar    1  UNL1       -0.0042
     50 C          59.0884   86.6225    7.5375 C.ar    1  UNL1       -0.0003
     51 C          58.6723   88.0556    7.3853 C.ar    1  UNL1       -0.0000
     52 C          59.5228   89.1488    7.9612 C.ar    1  UNL1       -0.0003
     53 C          60.7895   88.8089    8.6892 C.ar    1  UNL1       -0.0042
@<TRIPOS>BOND
     1    23    24    1
     2    24    25    1
     3    24    18    1
     4    18    19   ar
     5    19    20   ar
     6    20    17    1
     7    17     6    1
     8     6     7    1
     9     6     8   am
    10     8     9    2
    11     8    10   am
    12    10    11    1
    13    11    12    1
    14    12    13    1
    15    12    14    1
    16    14    15    1
    17    15     2    1
    18     2     3    2
    19     2     4   am
    20     4     1    1
    21     1    26    1
    22    26    27    1
    23    28    27    1
    24    28    40    1
    25    40    41    1
    26    41    42   ar
    27    42    43   ar
    28    43    44   ar
    29    44    45   ar
    30    45    46   ar
    31    28    29    1
    32    29    30   am
    33    30    31    2
    34    30    33    1
    35    33    34    1
    36    34    35    1
    37    35    36   ar
    38    36    37   ar
    39    37    38   ar
    40    38    39   ar
    41     1    47    1
    42    47    48    1
    43    48    49   ar
    44    49    50   ar
    45    50    51   ar
    46    51    52   ar
    47    52    53   ar
    48    20    21   ar
    49    21    22   ar
    50    22    18   ar
    51    15    10    1
    52    46    41   ar
    53    39    35   ar
    54    53    48   ar
    55    13    16    1
    56     4     5    1
    57    29    32    1
@<TRIPOS>MOLECULE
*****
 53 57 0 0 0
SMALL
GASTEIGER

@<TRIPOS>ATOM
      1 C          63.0942   90.4580   12.3504 C.3     1  UNL1        0.0760
      2 C          63.7187   89.0738   14.4585 C.2     1  UNL1        0.2407
      3 O          64.8938   89.9739   14.7013 O.2     1  UNL1       -0.2733
      4 N          62.8189   89.3159   13.2830 N.am    1  UNL1       -0.3043
      5 H          62.0476   88.7251   13.1236 H       1  UNL1        0.1494
      6 N          63.5942   84.4295   13.4334 N.am    1  UNL1       -0.2566
      7 C          63.8357   83.8632   12.0656 C.3     1  UNL1        0.1168
      8 C          63.6562   85.9120   13.6531 C.2     1  UNL1        0.3079
      9 O          63.9596   86.8283   12.5048 O.2     1  UNL1       -0.2523
     10 N          63.4147   86.4783   15.0208 N.am    1  UNL1       -0.2547
     11 C          63.1020   85.6908   16.2587 C.3     1  UNL1        0.1245
     12 C          62.9376   86.6574   17.3938 C.3     1  UNL1        0.1325
     13 O          62.6182   86.3015   18.8155 O.3     1  UNL1       -0.3826
     14 C          63.1486   88.0423   16.8576 C.3     1  UNL1        0.0602
     15 C          63.4434   87.9317   15.3911 C.3     1  UNL1        0.1555
     16 H          62.5318   85.3388   18.8962 H       1  UNL1        0.2104
     17 C          63.2907   83.5132   14.5817 C.3     1  UNL1        0.1413
     18 C          60.7023   80.6460   14.2022 C.ar    1  UNL1        0.0875
     19 N          61.0458   82.0626   14.5563 N.ar    1  UNL1       -0.2453
     20 C          62.5196   82.2480   14.3481 C.ar    1  UNL1        0.0858
     21 C          63.0870   80.9461   13.8654 C.ar    1  UNL1        0.0530
     22 S          61.9639   79.9560   13.7752 S.2     1  UNL1       -0.0705
     23 C          59.1917   78.5490   14.4679 C.3     1  UNL1        0.0069
     24 C          59.3369   80.0280   14.2642 C.3     1  UNL1        0.0465
     25 C          58.1168   80.8889   14.1225 C.3     1  UNL1        0.0069
     26 C          62.5643   90.4252   10.9475 C.3     1  UNL1        0.0216
     27 C          62.3855   89.1126   10.2438 C.3     1  UNL1        0.0217
     28 C          61.0530   88.7516    9.6570 C.3     1  UNL1        0.0792
     29 N          60.1829   89.8175    9.0597 N.am    1  UNL1       -0.2720
     30 C          59.7219   89.6995    7.6372 C.2     1  UNL1        0.4019
     31 O          60.1310   88.5156    6.8120 O.2     1  UNL1       -0.2264
     32 H          59.9145   90.5946    9.6013 H       1  UNL1        0.1527
     33 O          58.8518   90.7654    7.0399 O.3     1  UNL1       -0.4291
     34 C          58.6290   90.8081    5.5572 C.3     1  UNL1        0.2447
     35 C          59.6464   91.4542    4.6641 C.ar    1  UNL1        0.0714
     36 C          61.1205   91.1766    4.6617 C.ar    1  UNL1        0.1053
     37 N          61.7535   92.0421    3.6128 N.ar    1  UNL1       -0.2350
     38 C          60.6706   92.8547    2.9670 C.ar    1  UNL1        0.1343
     39 S          59.3684   92.4913    3.6167 S.2     1  UNL1       -0.0652
     40 C          60.5907   87.3247    9.6675 C.3     1  UNL1        0.0460
     41 C          61.2131   86.3277    8.7354 C.ar    1  UNL1       -0.0205
     42 C          62.6292   85.8822    8.9505 C.ar    1  UNL1       -0.0042
     43 C          63.2515   84.8853    8.0183 C.ar    1  UNL1       -0.0003
     44 C          62.4578   84.3340    6.8711 C.ar    1  UNL1       -0.0000
     45 C          61.0418   84.7795    6.6560 C.ar    1  UNL1       -0.0003
     46 C          60.4194   85.7764    7.5881 C.ar    1  UNL1       -0.0042
     47 C          63.8994   91.6330   12.8207 C.3     1  UNL1        0.0459
     48 C          65.1439   92.0322   12.0846 C.ar    1  UNL1       -0.0205
     49 C          65.0433   92.6521   10.7224 C.ar    1  UNL1       -0.0042
     50 C          66.2878   93.0514    9.9863 C.ar    1  UNL1       -0.0003
     51 C          67.6329   92.8307   10.6124 C.ar    1  UNL1       -0.0000
     52 C          67.7335   92.2107   11.9746 C.ar    1  UNL1       -0.0003
     53 C          66.4890   91.8114   12.7107 C.ar    1  UNL1       -0.0042
@<TRIPOS>BOND
     1    23    24    1
     2    24    25    1
     3    24    18    1
     4    18    19   ar
     5    19    20   ar
     6    20    17    1
     7    17     6    1
     8     6     7    1
     9     6     8   am
    10     8     9    2
    11     8    10   am
    12    10    11    1
    13    11    12    1
    14    12    13    1
    15    12    14    1
    16    14    15    1
    17    15     2    1
    18     2     3    2
    19     2     4   am
    20     4     1    1
    21     1    26    1
    22    26    27    1
    23    28    27    1
    24    28    40    1
    25    40    41    1
    26    41    42   ar
    27    42    43   ar
    28    43    44   ar
    29    44    45   ar
    30    45    46   ar
    31    28    29    1
    32    29    30   am
    33    30    31    2
    34    30    33    1
    35    33    34    1
    36    34    35    1
    37    35    36   ar
    38    36    37   ar
    39    37    38   ar
    40    38    39   ar
    41     1    47    1
    42    47    48    1
    43    48    49   ar
    44    49    50   ar
    45    50    51   ar
    46    51    52   ar
    47    52    53   ar
    48    20    21   ar
    49    21    22   ar
    50    22    18   ar
    51    15    10    1
    52    46    41   ar
    53    39    35   ar
    54    53    48   ar
    55    13    16    1
    56     4     5    1
    57    29    32    1
