@<TRIPOS>MOLECULE
*****
 29 31 0 0 0
SMALL
GASTEIGER

@<TRIPOS>ATOM
      1 S          63.8838   89.6798   13.9504 S.O2    1  UNL1        0.0456
      2 O          65.2276   89.3877   14.5495 O.2     1  UNL1       -0.1572
      3 O          62.5400   89.9719   13.3513 O.2     1  UNL1       -0.1572
      4 N          63.7170   88.2271   13.6159 N.3     1  UNL1       -0.1559
      5 C          63.0273   87.8241   12.3463 C.3     1  UNL1        0.1168
      6 C          62.8606   86.3713   12.0120 C.3     1  UNL1        0.1099
      7 N          63.3836   85.3217   12.9471 N.pl3   1  UNL1       -0.3045
      8 C          64.0734   85.7246   14.2167 C.3     1  UNL1        0.1099
      9 C          64.2401   87.1773   14.5511 C.3     1  UNL1        0.1168
     10 C          63.2168   83.8689   12.6126 C.ar    1  UNL1        0.0481
     11 C          62.6465   82.9257   13.6300 C.ar    1  UNL1        0.0168
     12 C          62.4797   81.4730   13.2955 C.ar    1  UNL1        0.0309
     13 C          62.8834   80.9636   11.9436 C.ar    1  UNL1        0.1402
     14 F          62.7166   79.5108   11.6092 F       1  UNL1       -0.2042
     15 C          63.4538   81.9067   10.9263 C.ar    1  UNL1        0.0309
     16 C          63.6205   83.3595   11.2608 C.ar    1  UNL1        0.0168
     17 C          64.0505   91.1324   14.2849 C.3     1  UNL1        0.1896
     18 C          66.6906   93.3311    9.6982 C.3     1  UNL1        0.0896
     19 N          66.1899   92.8580   11.0307 N.3     1  UNL1       -0.2714
     20 C          64.9230   92.0596   11.1154 C.3     1  UNL1        0.0739
     21 C          64.4223   91.5865   12.4479 C.3     1  UNL1        0.0399
     22 C          65.1886   91.9119   13.6957 C.3     1  UNL1        0.1126
     23 C          66.4556   92.7104   13.6109 C.3     1  UNL1        0.0399
     24 C          66.9563   93.1835   12.2785 C.3     1  UNL1        0.0739
     25 N          65.5597   91.9666   15.1480 N.am    1  UNL1       -0.1661
     26 O          66.9615   91.6481   15.5765 O.3     1  UNL1       -0.2915
     27 C          64.5291   92.3399   16.1719 C.2     1  UNL1        0.3268
     28 O          64.9002   92.3946   17.6243 O.2     1  UNL1       -0.2627
     29 H          67.4959   91.4288   14.7972 H       1  UNL1        0.2417
@<TRIPOS>BOND
     1    18    19    1
     2    19    20    1
     3    20    21    1
     4    21    22    1
     5    22    17    1
     6    17     1    1
     7     1     2    2
     8     1     3    2
     9     1     4    1
    10     4     5    1
    11     5     6    1
    12     6     7    1
    13     7    10    1
    14    10    11   ar
    15    11    12   ar
    16    12    13   ar
    17    13    14    1
    18    13    15   ar
    19    15    16   ar
    20     7     8    1
    21     8     9    1
    22    22    25    1
    23    25    26    1
    24    25    27   am
    25    27    28    2
    26    22    23    1
    27    23    24    1
    28    24    19    1
    29     9     4    1
    30    16    10   ar
    31    26    29    1
@<TRIPOS>MOLECULE
*****
 29 31 0 0 0
SMALL
GASTEIGER

@<TRIPOS>ATOM
      1 S          63.9143   89.6786   13.9400 S.O2    1  UNL1        0.0456
      2 O          62.5793   89.9722   13.3223 O.2     1  UNL1       -0.1572
      3 O          65.2493   89.3850   14.5577 O.2     1  UNL1       -0.1572
      4 N          63.7491   88.2255   13.6066 N.3     1  UNL1       -0.1559
      5 C          64.2581   87.1767   14.5505 C.3     1  UNL1        0.1168
      6 C          64.0928   85.7236   14.2170 C.3     1  UNL1        0.1099
      7 N          63.4187   85.3193   12.9395 N.pl3   1  UNL1       -0.3045
      8 C          62.9098   86.3680   11.9955 C.3     1  UNL1        0.1099
      9 C          63.0750   87.8211   12.3290 C.3     1  UNL1        0.1168
     10 C          63.2535   83.8661   12.6060 C.ar    1  UNL1        0.0481
     11 C          63.6737   83.3529   11.2606 C.ar    1  UNL1        0.0168
     12 C          63.5085   81.8998   10.9272 C.ar    1  UNL1        0.0309
     13 C          62.9232   80.9600   11.9392 C.ar    1  UNL1        0.1402
     14 F          62.7580   79.5068   11.6057 F       1  UNL1       -0.2042
     15 C          62.5030   81.4732   13.2846 C.ar    1  UNL1        0.0309
     16 C          62.6682   82.9263   13.6179 C.ar    1  UNL1        0.0168
     17 C          64.0795   91.1316   14.2735 C.3     1  UNL1        0.1896
     18 C          66.6869   93.3731    9.6888 C.3     1  UNL1        0.0896
     19 N          66.1966   92.8861   11.0201 N.3     1  UNL1       -0.2714
     20 C          64.9261   92.0936   11.1074 C.3     1  UNL1        0.0739
     21 C          64.4358   91.6067   12.4388 C.3     1  UNL1        0.0399
     22 C          65.2162   91.9122   13.6829 C.3     1  UNL1        0.1126
     23 C          66.4868   92.7046   13.5956 C.3     1  UNL1        0.0399
     24 C          66.9770   93.1916   12.2642 C.3     1  UNL1        0.0739
     25 N          65.6018   91.9466   15.1320 N.am    1  UNL1       -0.1661
     26 O          67.0035   91.6059   15.5435 O.3     1  UNL1       -0.2915
     27 C          64.5858   92.3218   16.1698 C.2     1  UNL1        0.3268
     28 O          64.9715   92.3562   17.6190 O.2     1  UNL1       -0.2627
     29 H          67.5276   91.3882   14.7568 H       1  UNL1        0.2417
@<TRIPOS>BOND
     1    18    19    1
     2    19    20    1
     3    20    21    1
     4    21    22    1
     5    22    17    1
     6    17     1    1
     7     1     2    2
     8     1     3    2
     9     1     4    1
    10     4     5    1
    11     5     6    1
    12     6     7    1
    13     7    10    1
    14    10    11   ar
    15    11    12   ar
    16    12    13   ar
    17    13    14    1
    18    13    15   ar
    19    15    16   ar
    20     7     8    1
    21     8     9    1
    22    22    25    1
    23    25    26    1
    24    25    27   am
    25    27    28    2
    26    22    23    1
    27    23    24    1
    28    24    19    1
    29     9     4    1
    30    16    10   ar
    31    26    29    1
@<TRIPOS>MOLECULE
*****
 29 31 0 0 0
SMALL
GASTEIGER

@<TRIPOS>ATOM
      1 S          62.0000   89.3815   11.3873 S.O2    1  UNL1        0.0456
      2 O          61.1563   89.4057   12.6273 O.2     1  UNL1       -0.1572
      3 O          62.8438   89.3573   10.1473 O.2     1  UNL1       -0.1572
      4 N          63.1036   90.0805   12.1245 N.3     1  UNL1       -0.1559
      5 C          63.7485   91.2979   11.5310 C.3     1  UNL1        0.1168
      6 C          64.8521   91.9968   12.2683 C.3     1  UNL1        0.1099
      7 N          65.3108   91.4784   13.5990 N.pl3   1  UNL1       -0.3045
      8 C          64.6660   90.2611   14.1926 C.3     1  UNL1        0.1099
      9 C          63.5624   89.5622   13.4553 C.3     1  UNL1        0.1168
     10 C          66.4145   92.1775   14.3363 C.ar    1  UNL1        0.0481
     11 C          66.5750   93.6637   14.2128 C.ar    1  UNL1        0.0168
     12 C          67.6786   94.3626   14.9500 C.ar    1  UNL1        0.0309
     13 C          68.6216   93.5753   15.8107 C.ar    1  UNL1        0.1402
     14 F          69.7253   94.2743   16.5480 F       1  UNL1       -0.2042
     15 C          68.4611   92.0891   15.9342 C.ar    1  UNL1        0.0309
     16 C          67.3574   91.3901   15.1970 C.ar    1  UNL1        0.0168
     17 C          60.8965   88.6825   10.6501 C.3     1  UNL1        0.1896
     18 C          63.4967   83.6440    9.8171 C.3     1  UNL1        0.0896
     19 N          62.7348   84.9359    9.7968 N.3     1  UNL1       -0.2714
     20 C          62.7168   85.8152   11.0119 C.3     1  UNL1        0.0739
     21 C          61.9548   87.1070   10.9916 C.3     1  UNL1        0.0399
     22 C          61.2108   87.5197    9.7562 C.3     1  UNL1        0.1126
     23 C          61.2288   86.6404    8.5411 C.3     1  UNL1        0.0399
     24 C          61.9908   85.3485    8.5614 C.3     1  UNL1        0.0739
     25 N          60.3577   88.3361    8.8312 N.am    1  UNL1       -0.1661
     26 O          60.5589   89.8197    8.7389 O.3     1  UNL1       -0.2915
     27 C          59.3035   87.6689    7.9984 C.2     1  UNL1        0.3268
     28 O          58.4504   88.4855    7.0734 O.2     1  UNL1       -0.2627
     29 H          61.2737   90.0870    9.3377 H       1  UNL1        0.2417
@<TRIPOS>BOND
     1    18    19    1
     2    19    20    1
     3    20    21    1
     4    21    22    1
     5    22    17    1
     6    17     1    1
     7     1     2    2
     8     1     3    2
     9     1     4    1
    10     4     5    1
    11     5     6    1
    12     6     7    1
    13     7    10    1
    14    10    11   ar
    15    11    12   ar
    16    12    13   ar
    17    13    14    1
    18    13    15   ar
    19    15    16   ar
    20     7     8    1
    21     8     9    1
    22    22    25    1
    23    25    26    1
    24    25    27   am
    25    27    28    2
    26    22    23    1
    27    23    24    1
    28    24    19    1
    29     9     4    1
    30    16    10   ar
    31    26    29    1
@<TRIPOS>MOLECULE
*****
 29 31 0 0 0
SMALL
GASTEIGER

@<TRIPOS>ATOM
      1 S          61.9806   89.3554   11.3327 S.O2    1  UNL1        0.0456
      2 O          62.8212   89.3490   10.0905 O.2     1  UNL1       -0.1572
      3 O          61.1400   89.3617   12.5751 O.2     1  UNL1       -0.1572
      4 N          63.0804   90.0566   12.0735 N.3     1  UNL1       -0.1559
      5 C          63.5321   89.5426   13.4083 C.3     1  UNL1        0.1168
      6 C          64.6320   90.2440   14.1490 C.3     1  UNL1        0.1099
      7 N          65.2800   91.4593   13.5548 N.pl3   1  UNL1       -0.3045
      8 C          64.8284   91.9733   12.2200 C.3     1  UNL1        0.1099
      9 C          63.7285   91.2720   11.4793 C.3     1  UNL1        0.1168
     10 C          66.3799   92.1606   14.2955 C.ar    1  UNL1        0.0481
     11 C          66.5607   93.6418   14.1435 C.ar    1  UNL1        0.0168
     12 C          67.6605   94.3430   14.8842 C.ar    1  UNL1        0.0309
     13 C          68.5794   93.5630   15.7770 C.ar    1  UNL1        0.1402
     14 F          69.6793   94.2643   16.5177 F       1  UNL1       -0.2042
     15 C          68.3986   92.0817   15.9291 C.ar    1  UNL1        0.0309
     16 C          67.2988   91.3805   15.1883 C.ar    1  UNL1        0.0168
     17 C          60.8808   88.6542   10.5921 C.3     1  UNL1        0.1896
     18 C          63.5451   83.6555    9.7224 C.3     1  UNL1        0.0896
     19 N          62.7638   84.9359    9.7127 N.3     1  UNL1       -0.2714
     20 C          62.7480   85.8140   10.9287 C.3     1  UNL1        0.0739
     21 C          61.9666   87.0944   10.9190 C.3     1  UNL1        0.0399
     22 C          61.2011   87.4967    9.6934 C.3     1  UNL1        0.1126
     23 C          61.2169   86.6185    8.4774 C.3     1  UNL1        0.0399
     24 C          61.9982   85.3381    8.4871 C.3     1  UNL1        0.0739
     25 N          60.3244   88.3009    8.7798 N.am    1  UNL1       -0.1661
     26 O          60.5210   89.7835    8.6648 O.3     1  UNL1       -0.2915
     27 C          59.2510   87.6225    7.9813 C.2     1  UNL1        0.3268
     28 O          58.3742   88.4267    7.0678 O.2     1  UNL1       -0.2627
     29 H          61.2498   90.0588    9.2427 H       1  UNL1        0.2417
@<TRIPOS>BOND
     1    18    19    1
     2    19    20    1
     3    20    21    1
     4    21    22    1
     5    22    17    1
     6    17     1    1
     7     1     2    2
     8     1     3    2
     9     1     4    1
    10     4     5    1
    11     5     6    1
    12     6     7    1
    13     7    10    1
    14    10    11   ar
    15    11    12   ar
    16    12    13   ar
    17    13    14    1
    18    13    15   ar
    19    15    16   ar
    20     7     8    1
    21     8     9    1
    22    22    25    1
    23    25    26    1
    24    25    27   am
    25    27    28    2
    26    22    23    1
    27    23    24    1
    28    24    19    1
    29     9     4    1
    30    16    10   ar
    31    26    29    1
@<TRIPOS>MOLECULE
*****
 29 31 0 0 0
SMALL
GASTEIGER

@<TRIPOS>ATOM
      1 S          64.0068   89.6042   14.5520 S.O2    1  UNL1        0.0456
      2 O          62.5250   89.8363   14.5723 O.2     1  UNL1       -0.1572
      3 O          65.4886   89.3721   14.5317 O.2     1  UNL1       -0.1572
      4 N          63.7754   88.1530   14.2515 N.3     1  UNL1       -0.1559
      5 C          63.9018   87.1316   15.3427 C.3     1  UNL1        0.1168
      6 C          63.6705   85.6803   15.0420 C.3     1  UNL1        0.1099
      7 N          63.3128   85.2505   13.6501 N.pl3   1  UNL1       -0.3045
      8 C          63.1864   86.2718   12.5589 C.3     1  UNL1        0.1099
      9 C          63.4177   87.7231   12.8596 C.3     1  UNL1        0.1168
     10 C          63.0815   83.7992   13.3495 C.ar    1  UNL1        0.0481
     11 C          62.4812   82.9037   14.3924 C.ar    1  UNL1        0.0168
     12 C          62.2499   81.4524   14.0917 C.ar    1  UNL1        0.0309
     13 C          62.6189   80.8968   12.7482 C.ar    1  UNL1        0.1402
     14 F          62.3876   79.4454   12.4476 F       1  UNL1       -0.2042
     15 C          63.2192   81.7923   11.7053 C.ar    1  UNL1        0.0309
     16 C          63.4505   83.2436   12.0060 C.ar    1  UNL1        0.0168
     17 C          64.2381   91.0554   14.8526 C.3     1  UNL1        0.1896
     18 C          65.8670   93.0030    9.7150 C.3     1  UNL1        0.0896
     19 N          65.6418   92.6195   11.1475 N.3     1  UNL1       -0.2714
     20 C          64.4771   91.7496   11.5169 C.3     1  UNL1        0.0739
     21 C          64.2519   91.3661   12.9494 C.3     1  UNL1        0.0399
     22 C          65.1916   91.8526   14.0126 C.3     1  UNL1        0.1126
     23 C          66.3564   92.7225   13.6433 C.3     1  UNL1        0.0399
     24 C          66.5815   93.1060   12.2107 C.3     1  UNL1        0.0739
     25 N          65.8002   92.0622   15.3675 N.am    1  UNL1       -0.1661
     26 O          64.9414   91.9875   16.5951 O.3     1  UNL1       -0.2915
     27 C          67.2675   92.3466   15.4948 C.2     1  UNL1        0.3268
     28 O          67.8760   92.5562   16.8497 O.2     1  UNL1       -0.2627
     29 H          64.0256   91.7975   16.3380 H       1  UNL1        0.2417
@<TRIPOS>BOND
     1    18    19    1
     2    19    20    1
     3    20    21    1
     4    21    22    1
     5    22    17    1
     6    17     1    1
     7     1     2    2
     8     1     3    2
     9     1     4    1
    10     4     5    1
    11     5     6    1
    12     6     7    1
    13     7    10    1
    14    10    11   ar
    15    11    12   ar
    16    12    13   ar
    17    13    14    1
    18    13    15   ar
    19    15    16   ar
    20     7     8    1
    21     8     9    1
    22    22    25    1
    23    25    26    1
    24    25    27   am
    25    27    28    2
    26    22    23    1
    27    23    24    1
    28    24    19    1
    29     9     4    1
    30    16    10   ar
    31    26    29    1
@<TRIPOS>MOLECULE
*****
 29 31 0 0 0
SMALL
GASTEIGER

@<TRIPOS>ATOM
      1 S          63.1623   88.8318   12.6656 S.O2    1  UNL1        0.0456
      2 O          61.8859   88.9866   11.8930 O.2     1  UNL1       -0.1572
      3 O          64.4387   88.6768   13.4382 O.2     1  UNL1       -0.1572
      4 N          63.0993   87.3456   12.4719 N.3     1  UNL1       -0.1559
      5 C          63.6865   86.4292   13.5040 C.3     1  UNL1        0.1168
      6 C          63.6235   84.9430   13.3103 C.3     1  UNL1        0.1099
      7 N          62.9731   84.3734   12.0845 N.pl3   1  UNL1       -0.3045
      8 C          62.3858   85.2898   11.0524 C.3     1  UNL1        0.1099
      9 C          62.4489   86.7760   11.2461 C.3     1  UNL1        0.1168
     10 C          62.9101   82.8873   11.8909 C.ar    1  UNL1        0.0481
     11 C          62.4540   82.0033   13.0136 C.ar    1  UNL1        0.0168
     12 C          62.3910   80.5172   12.8199 C.ar    1  UNL1        0.0309
     13 C          62.7841   79.9151   11.5035 C.ar    1  UNL1        0.1402
     14 F          62.7211   78.4289   11.3098 F       1  UNL1       -0.2042
     15 C          63.2402   80.7991   10.3807 C.ar    1  UNL1        0.0309
     16 C          63.3032   82.2852   10.5745 C.ar    1  UNL1        0.0168
     17 C          63.2254   90.3178   12.8592 C.3     1  UNL1        0.1896
     18 C          67.5059   93.5812   14.8261 C.3     1  UNL1        0.0896
     19 N          66.3341   92.6847   14.5556 N.3     1  UNL1       -0.2714
     20 C          65.9269   92.3884   13.1428 C.3     1  UNL1        0.0739
     21 C          64.7550   91.4920   12.8723 C.3     1  UNL1        0.0399
     22 C          63.9904   90.8918   14.0148 C.3     1  UNL1        0.1126
     23 C          64.3976   91.1881   15.4276 C.3     1  UNL1        0.0399
     24 C          65.5695   92.0846   15.6981 C.3     1  UNL1        0.0739
     25 N          62.9602   90.0923   14.7559 N.am    1  UNL1       -0.1661
     26 O          61.5565   90.0097   14.2335 O.3     1  UNL1       -0.2915
     27 C          63.3335   89.3755   16.0195 C.2     1  UNL1        0.3268
     28 O          62.3031   88.5760   16.7607 O.2     1  UNL1       -0.2627
     29 H          61.4851   90.5256   13.4151 H       1  UNL1        0.2417
@<TRIPOS>BOND
     1    18    19    1
     2    19    20    1
     3    20    21    1
     4    21    22    1
     5    22    17    1
     6    17     1    1
     7     1     2    2
     8     1     3    2
     9     1     4    1
    10     4     5    1
    11     5     6    1
    12     6     7    1
    13     7    10    1
    14    10    11   ar
    15    11    12   ar
    16    12    13   ar
    17    13    14    1
    18    13    15   ar
    19    15    16   ar
    20     7     8    1
    21     8     9    1
    22    22    25    1
    23    25    26    1
    24    25    27   am
    25    27    28    2
    26    22    23    1
    27    23    24    1
    28    24    19    1
    29     9     4    1
    30    16    10   ar
    31    26    29    1
@<TRIPOS>MOLECULE
*****
 29 31 0 0 0
SMALL
GASTEIGER

@<TRIPOS>ATOM
      1 S          63.9202   89.7966   14.3640 S.O2    1  UNL1        0.0456
      2 O          62.4420   89.8884   14.6014 O.2     1  UNL1       -0.1572
      3 O          65.3985   89.7047   14.1265 O.2     1  UNL1       -0.1572
      4 N          63.7679   88.3568   13.9717 N.3     1  UNL1       -0.1559
      5 C          64.2163   87.2731   14.9067 C.3     1  UNL1        0.1168
      6 C          64.0639   85.8333   14.5143 C.3     1  UNL1        0.1099
      7 N          63.4630   85.4774   13.1868 N.pl3   1  UNL1       -0.3045
      8 C          63.0145   86.5611   12.2517 C.3     1  UNL1        0.1099
      9 C          63.1670   88.0008   12.6441 C.3     1  UNL1        0.1168
     10 C          63.3106   84.0376   12.7944 C.ar    1  UNL1        0.0481
     11 C          63.7313   83.5841   11.4279 C.ar    1  UNL1        0.0168
     12 C          63.5789   82.1443   11.0357 C.ar    1  UNL1        0.0309
     13 C          63.0058   81.1582   12.0099 C.ar    1  UNL1        0.1402
     14 F          62.8534   79.7184   11.6175 F       1  UNL1       -0.2042
     15 C          62.5851   81.6117   13.3763 C.ar    1  UNL1        0.0309
     16 C          62.7376   83.0515   13.7686 C.ar    1  UNL1        0.0168
     17 C          64.0727   91.2363   14.7563 C.3     1  UNL1        0.1896
     18 C          69.0562   93.8102   15.9314 C.3     1  UNL1        0.0896
     19 N          67.7933   93.2124   15.3858 N.3     1  UNL1       -0.2714
     20 C          66.8557   92.4787   16.2982 C.3     1  UNL1        0.0739
     21 C          65.5927   91.8809   15.7526 C.3     1  UNL1        0.0399
     22 C          65.2674   92.0170   14.2946 C.3     1  UNL1        0.1126
     23 C          66.2050   92.7508   13.3822 C.3     1  UNL1        0.0399
     24 C          67.4680   93.3485   13.9278 C.3     1  UNL1        0.0739
     25 N          64.5272   91.8819   12.9970 N.am    1  UNL1       -0.1661
     26 O          63.0688   91.5309   12.9984 O.3     1  UNL1       -0.2915
     27 C          65.2454   92.0979   11.6979 C.2     1  UNL1        0.3268
     28 O          64.5051   91.9628   10.4002 O.2     1  UNL1       -0.2627
     29 H          62.7623   91.4267   13.9128 H       1  UNL1        0.2417
@<TRIPOS>BOND
     1    18    19    1
     2    19    20    1
     3    20    21    1
     4    21    22    1
     5    22    17    1
     6    17     1    1
     7     1     2    2
     8     1     3    2
     9     1     4    1
    10     4     5    1
    11     5     6    1
    12     6     7    1
    13     7    10    1
    14    10    11   ar
    15    11    12   ar
    16    12    13   ar
    17    13    14    1
    18    13    15   ar
    19    15    16   ar
    20     7     8    1
    21     8     9    1
    22    22    25    1
    23    25    26    1
    24    25    27   am
    25    27    28    2
    26    22    23    1
    27    23    24    1
    28    24    19    1
    29     9     4    1
    30    16    10   ar
    31    26    29    1
@<TRIPOS>MOLECULE
*****
 29 31 0 0 0
SMALL
GASTEIGER

@<TRIPOS>ATOM
      1 S          63.2060   89.3930   12.1438 S.O2    1  UNL1        0.0456
      2 O          64.3935   89.3867   13.0601 O.2     1  UNL1       -0.1572
      3 O          62.0184   89.3993   11.2275 O.2     1  UNL1       -0.1572
      4 N          63.0733   87.9077   12.3053 N.3     1  UNL1       -0.1559
      5 C          62.2647   87.1154   11.3212 C.3     1  UNL1        0.1168
      6 C          62.1321   85.6300   11.4828 C.3     1  UNL1        0.1099
      7 N          62.8080   84.9369   12.6286 N.pl3   1  UNL1       -0.3045
      8 C          63.6165   85.7291   13.6128 C.3     1  UNL1        0.1099
      9 C          63.7492   87.2145   13.4511 C.3     1  UNL1        0.1168
     10 C          62.6753   83.4515   12.7901 C.ar    1  UNL1        0.0481
     11 C          62.2137   82.8775   14.0968 C.ar    1  UNL1        0.0168
     12 C          62.0811   81.3921   14.2583 C.ar    1  UNL1        0.0309
     13 C          62.4100   80.4809   13.1131 C.ar    1  UNL1        0.1402
     14 F          62.2773   78.9954   13.2747 F       1  UNL1       -0.2042
     15 C          62.8716   81.0549   11.8064 C.ar    1  UNL1        0.0309
     16 C          63.0042   82.5403   11.6450 C.ar    1  UNL1        0.0168
     17 C          63.3386   90.8783   11.9822 C.3     1  UNL1        0.1896
     18 C          65.5326   92.4151   17.0484 C.3     1  UNL1        0.0896
     19 N          65.1443   92.1534   15.6234 N.3     1  UNL1       -0.2714
     20 C          63.9642   91.2801   15.3159 C.3     1  UNL1        0.0739
     21 C          63.5759   91.0183   13.8908 C.3     1  UNL1        0.0399
     22 C          64.3679   91.6299   12.7733 C.3     1  UNL1        0.1126
     23 C          65.5480   92.5032   13.0808 C.3     1  UNL1        0.0399
     24 C          65.9363   92.7649   14.5058 C.3     1  UNL1        0.0739
     25 N          64.8023   91.9804   11.3811 N.am    1  UNL1       -0.1661
     26 O          63.8301   91.8769   10.2435 O.3     1  UNL1       -0.2915
     27 C          66.2091   92.4345   11.1263 C.2     1  UNL1        0.3268
     28 O          66.6435   92.7851    9.7340 O.2     1  UNL1       -0.2627
     29 H          62.9724   91.5714   10.5780 H       1  UNL1        0.2417
@<TRIPOS>BOND
     1    18    19    1
     2    19    20    1
     3    20    21    1
     4    21    22    1
     5    22    17    1
     6    17     1    1
     7     1     2    2
     8     1     3    2
     9     1     4    1
    10     4     5    1
    11     5     6    1
    12     6     7    1
    13     7    10    1
    14    10    11   ar
    15    11    12   ar
    16    12    13   ar
    17    13    14    1
    18    13    15   ar
    19    15    16   ar
    20     7     8    1
    21     8     9    1
    22    22    25    1
    23    25    26    1
    24    25    27   am
    25    27    28    2
    26    22    23    1
    27    23    24    1
    28    24    19    1
    29     9     4    1
    30    16    10   ar
    31    26    29    1
@<TRIPOS>MOLECULE
*****
 29 31 0 0 0
SMALL
GASTEIGER

@<TRIPOS>ATOM
      1 S          63.8805   89.7065   13.6672 S.O2    1  UNL1        0.0456
      2 O          65.1160   89.4050   14.4626 O.2     1  UNL1       -0.1572
      3 O          62.6450   90.0079   12.8718 O.2     1  UNL1       -0.1572
      4 N          63.7032   88.2434   13.3880 N.3     1  UNL1       -0.1559
      5 C          62.9936   87.7978   12.1439 C.3     1  UNL1        0.1168
      6 C          62.8163   86.3346   11.8648 C.3     1  UNL1        0.1099
      7 N          63.3485   85.3172   12.8299 N.pl3   1  UNL1       -0.3045
      8 C          64.0581   85.7627   14.0741 C.3     1  UNL1        0.1099
      9 C          64.2355   87.2258   14.3531 C.3     1  UNL1        0.1168
     10 C          63.1712   83.8540   12.5508 C.ar    1  UNL1        0.0481
     11 C          62.6417   82.9453   13.6202 C.ar    1  UNL1        0.0168
     12 C          62.4644   81.4821   13.3410 C.ar    1  UNL1        0.0309
     13 C          62.8166   80.9279   11.9924 C.ar    1  UNL1        0.1402
     14 F          62.6392   79.4648   11.7132 F       1  UNL1       -0.2042
     15 C          63.3460   81.8367   10.9229 C.ar    1  UNL1        0.0309
     16 C          63.5234   83.2998   11.2022 C.ar    1  UNL1        0.0168
     17 C          64.0578   91.1695   13.9463 C.3     1  UNL1        0.1896
     18 C          69.5141   92.7747   14.6491 C.3     1  UNL1        0.0896
     19 N          68.0646   92.3940   14.7144 N.3     1  UNL1       -0.2714
     20 C          67.3431   91.9725   13.4688 C.3     1  UNL1        0.0739
     21 C          65.8937   91.5918   13.5341 C.3     1  UNL1        0.0399
     22 C          65.1658   91.6327   14.8451 C.3     1  UNL1        0.1126
     23 C          65.8874   92.0543   16.0907 C.3     1  UNL1        0.0399
     24 C          67.3368   92.4349   16.0254 C.3     1  UNL1        0.0739
     25 N          64.0532   91.5128   15.8439 N.am    1  UNL1       -0.1661
     26 O          63.5599   92.7309   16.5670 O.3     1  UNL1       -0.2915
     27 C          63.4339   90.1747   16.1196 C.2     1  UNL1        0.3268
     28 O          62.3212   90.0548   17.1185 O.2     1  UNL1       -0.2627
     29 H          64.0632   93.5067   16.2742 H       1  UNL1        0.2417
@<TRIPOS>BOND
     1    18    19    1
     2    19    20    1
     3    20    21    1
     4    21    22    1
     5    22    17    1
     6    17     1    1
     7     1     2    2
     8     1     3    2
     9     1     4    1
    10     4     5    1
    11     5     6    1
    12     6     7    1
    13     7    10    1
    14    10    11   ar
    15    11    12   ar
    16    12    13   ar
    17    13    14    1
    18    13    15   ar
    19    15    16   ar
    20     7     8    1
    21     8     9    1
    22    22    25    1
    23    25    26    1
    24    25    27   am
    25    27    28    2
    26    22    23    1
    27    23    24    1
    28    24    19    1
    29     9     4    1
    30    16    10   ar
    31    26    29    1
