@<TRIPOS>MOLECULE
*****
 29 31 0 0 0
SMALL
GASTEIGER

@<TRIPOS>ATOM
      1 N          62.7082   90.0810   11.9641 N.am    1  UNL1       -0.2658
      2 C          63.2653   91.0702   10.9838 C.2     1  UNL1        0.2493
      3 O          62.7164   91.3637    9.6190 O.2     1  UNL1       -0.2699
      4 C          64.4676   91.7145   11.6078 C.ar    1  UNL1        0.0516
      5 C          65.4171   92.7629   11.1086 C.ar    1  UNL1        0.0043
      6 C          66.5525   93.2203   11.9755 C.ar    1  UNL1        0.0001
      7 C          66.7385   92.6293   13.3415 C.ar    1  UNL1       -0.0003
      8 C          65.7891   91.5808   13.8407 C.ar    1  UNL1       -0.0021
      9 C          64.6536   91.1234   12.9738 C.ar    1  UNL1        0.0089
     10 C          63.5662   90.1139   13.1940 C.3     1  UNL1        0.1751
     11 C          63.3712   89.2831   14.4276 C.2     1  UNL1        0.2449
     12 O          62.4884   89.7792   15.5342 O.2     1  UNL1       -0.2729
     13 N          64.0590   87.9561   14.5547 N.am    1  UNL1       -0.3026
     14 H          64.6384   87.6304   13.8285 H       1  UNL1        0.1495
     15 C          63.8639   87.1253   15.7883 C.3     1  UNL1        0.0924
     16 C          63.9765   85.6315   15.7119 C.3     1  UNL1        0.0594
     17 C          64.7006   84.9917   14.5647 C.3     1  UNL1        0.1950
     18 F          64.0673   84.9538   13.2054 F       1  UNL1       -0.2343
     19 C          61.5044   89.2116   11.7519 C.3     1  UNL1        0.0984
     20 C          60.4344   89.0327    9.9290 C.3     1  UNL1        0.0061
     21 C          61.4845   88.2199   10.6266 C.3     1  UNL1        0.0372
     22 C          62.5346   87.4072   11.3243 C.3     1  UNL1        0.0061
     23 C          61.4646   87.2283    9.5013 C.ar    1  UNL1       -0.0211
     24 C          60.2239   87.0550    8.6763 C.ar    1  UNL1       -0.0034
     25 C          60.2039   86.0634    7.5511 C.ar    1  UNL1        0.0111
     26 C          61.4246   85.2450    7.2507 C.ar    1  UNL1        0.0577
     27 CL         61.4046   84.2534    6.1255 Cl      1  UNL1       -0.0822
     28 C          62.6653   85.4183    8.0757 C.ar    1  UNL1        0.0111
     29 C          62.6853   86.4100    9.2011 C.ar    1  UNL1       -0.0034
@<TRIPOS>BOND
     1    20    21    1
     2    21    22    1
     3    21    19    1
     4    19     1    1
     5     1     2   am
     6     2     3    2
     7     2     4    1
     8     4     5   ar
     9     5     6   ar
    10     6     7   ar
    11     7     8   ar
    12     8     9   ar
    13     9    10    1
    14    10    11    1
    15    11    12    2
    16    11    13   am
    17    13    15    1
    18    15    16    1
    19    16    17    1
    20    17    18    1
    21    21    23    1
    22    23    24   ar
    23    24    25   ar
    24    25    26   ar
    25    26    27    1
    26    26    28   ar
    27    28    29   ar
    28    10     1    1
    29    29    23   ar
    30     9     4   ar
    31    13    14    1
@<TRIPOS>MOLECULE
*****
 29 31 0 0 0
SMALL
GASTEIGER

@<TRIPOS>ATOM
      1 N          62.7032   90.0178   12.0250 N.am    1  UNL1       -0.2658
      2 C          63.2562   91.0059   11.0412 C.2     1  UNL1        0.2493
      3 O          62.7095   91.2884    9.6732 O.2     1  UNL1       -0.2699
      4 C          64.4518   91.6621   11.6656 C.ar    1  UNL1        0.0516
      5 C          65.3952   92.7148   11.1639 C.ar    1  UNL1        0.0043
      6 C          66.5246   93.1850   12.0318 C.ar    1  UNL1        0.0001
      7 C          66.7106   92.6023   13.4015 C.ar    1  UNL1       -0.0003
      8 C          65.7673   91.5496   13.9032 C.ar    1  UNL1       -0.0021
      9 C          64.6379   91.0795   13.0352 C.ar    1  UNL1        0.0089
     10 C          63.5572   90.0632   13.2573 C.3     1  UNL1        0.1751
     11 C          63.3643   89.2374   14.4946 C.2     1  UNL1        0.2449
     12 O          62.4626   89.7258   15.5893 O.2     1  UNL1       -0.2729
     13 N          64.0731   87.9231   14.6372 N.am    1  UNL1       -0.3026
     14 H          64.6650   87.6025   13.9187 H       1  UNL1        0.1495
     15 C          63.8803   87.0973   15.8744 C.3     1  UNL1        0.0924
     16 C          63.9079   85.6000   15.7886 C.3     1  UNL1        0.0594
     17 C          64.1844   84.9292   14.4758 C.3     1  UNL1        0.1950
     18 F          65.5759   84.4788   14.1421 F       1  UNL1       -0.2343
     19 C          61.5065   89.1385   11.8135 C.3     1  UNL1        0.0984
     20 C          62.5297   87.3378   11.3552 C.3     1  UNL1        0.0061
     21 C          61.4826   88.1661   10.6716 C.3     1  UNL1        0.0372
     22 C          60.4355   88.9945    9.9881 C.3     1  UNL1        0.0061
     23 C          61.4587   87.1937    9.5297 C.ar    1  UNL1       -0.0211
     24 C          62.6802   86.3848    9.2079 C.ar    1  UNL1       -0.0034
     25 C          62.6565   85.4124    8.0661 C.ar    1  UNL1        0.0111
     26 C          61.4111   85.2488    7.2460 C.ar    1  UNL1        0.0577
     27 CL         61.3873   84.2764    6.1042 Cl      1  UNL1       -0.0822
     28 C          60.1896   86.0578    7.5678 C.ar    1  UNL1        0.0111
     29 C          60.2134   87.0302    8.7097 C.ar    1  UNL1       -0.0034
@<TRIPOS>BOND
     1    20    21    1
     2    21    22    1
     3    21    19    1
     4    19     1    1
     5     1     2   am
     6     2     3    2
     7     2     4    1
     8     4     5   ar
     9     5     6   ar
    10     6     7   ar
    11     7     8   ar
    12     8     9   ar
    13     9    10    1
    14    10    11    1
    15    11    12    2
    16    11    13   am
    17    13    15    1
    18    15    16    1
    19    16    17    1
    20    17    18    1
    21    21    23    1
    22    23    24   ar
    23    24    25   ar
    24    25    26   ar
    25    26    27    1
    26    26    28   ar
    27    28    29   ar
    28    10     1    1
    29    29    23   ar
    30     9     4   ar
    31    13    14    1
@<TRIPOS>MOLECULE
*****
 29 31 0 0 0
SMALL
GASTEIGER

@<TRIPOS>ATOM
      1 N          63.1309   88.8802   12.8218 N.am    1  UNL1       -0.2658
      2 C          63.7013   87.7941   13.6851 C.2     1  UNL1        0.2493
      3 O          64.3677   87.9838   15.0155 O.2     1  UNL1       -0.2699
      4 C          63.4883   86.4851   12.9844 C.ar    1  UNL1        0.0516
      5 C          63.8430   85.0766   13.3593 C.ar    1  UNL1        0.0043
      6 C          63.4956   83.9452   12.4378 C.ar    1  UNL1        0.0001
      7 C          62.7935   84.2222   11.1415 C.ar    1  UNL1       -0.0003
      8 C          62.4389   85.6306   10.7666 C.ar    1  UNL1       -0.0021
      9 C          62.7863   86.7620   11.6881 C.ar    1  UNL1        0.0089
     10 C          62.5655   88.2423   11.5876 C.3     1  UNL1        0.1751
     11 C          61.8965   88.9588   10.4522 C.2     1  UNL1        0.2449
     12 O          62.4509   90.2615    9.9568 O.2     1  UNL1       -0.2729
     13 N          60.6730   88.3726    9.8123 N.am    1  UNL1       -0.3026
     14 H          60.3090   87.5176   10.1374 H       1  UNL1        0.1495
     15 C          60.0040   89.0892    8.6769 C.3     1  UNL1        0.0924
     16 C          59.3880   88.3067    7.5553 C.3     1  UNL1        0.0594
     17 C          58.9586   86.8869    7.7787 C.3     1  UNL1        0.1950
     18 F          59.8807   85.7592    7.4205 F       1  UNL1       -0.2343
     19 C          63.1268   90.3466   13.1374 C.3     1  UNL1        0.0984
     20 C          63.8426   90.7795   15.0868 C.3     1  UNL1        0.0061
     21 C          64.3579   90.9973   13.6951 C.3     1  UNL1        0.0372
     22 C          64.8731   91.2150   12.3033 C.3     1  UNL1        0.0061
     23 C          65.5890   91.6480   14.2528 C.ar    1  UNL1       -0.0211
     24 C          66.8188   91.7777   13.4038 C.ar    1  UNL1       -0.0034
     25 C          68.0499   92.4283   13.9614 C.ar    1  UNL1        0.0111
     26 C          68.0512   92.9493   15.3681 C.ar    1  UNL1        0.0577
     27 CL         69.2823   93.6000   15.9257 Cl      1  UNL1       -0.0822
     28 C          66.8214   92.8196   16.2171 C.ar    1  UNL1        0.0111
     29 C          65.5903   92.1689   15.6594 C.ar    1  UNL1       -0.0034
@<TRIPOS>BOND
     1    20    21    1
     2    21    22    1
     3    21    19    1
     4    19     1    1
     5     1     2   am
     6     2     3    2
     7     2     4    1
     8     4     5   ar
     9     5     6   ar
    10     6     7   ar
    11     7     8   ar
    12     8     9   ar
    13     9    10    1
    14    10    11    1
    15    11    12    2
    16    11    13   am
    17    13    15    1
    18    15    16    1
    19    16    17    1
    20    17    18    1
    21    21    23    1
    22    23    24   ar
    23    24    25   ar
    24    25    26   ar
    25    26    27    1
    26    26    28   ar
    27    28    29   ar
    28    10     1    1
    29    29    23   ar
    30     9     4   ar
    31    13    14    1
@<TRIPOS>MOLECULE
*****
 29 31 0 0 0
SMALL
GASTEIGER

@<TRIPOS>ATOM
      1 N          62.3850   86.8323   11.5556 N.am    1  UNL1       -0.2658
      2 C          63.2191   86.2103   12.6361 C.2     1  UNL1        0.2493
      3 O          63.6230   86.8637   13.9245 O.2     1  UNL1       -0.2699
      4 C          63.5783   84.8201   12.2020 C.ar    1  UNL1        0.0516
      5 C          64.3837   83.7396   12.8606 C.ar    1  UNL1        0.0043
      6 C          64.5770   82.4219   12.1705 C.ar    1  UNL1        0.0001
      7 C          63.9649   82.1848   10.8217 C.ar    1  UNL1       -0.0003
      8 C          63.1595   83.2653   10.1631 C.ar    1  UNL1       -0.0021
      9 C          62.9663   84.5830   10.8532 C.ar    1  UNL1        0.0089
     10 C          62.2288   85.8266   10.4538 C.3     1  UNL1        0.1751
     11 C          61.4685   86.0289    9.1767 C.2     1  UNL1        0.2449
     12 O          62.1003   85.6739    7.8634 O.2     1  UNL1       -0.2729
     13 N          60.0763   86.5862    9.2128 N.am    1  UNL1       -0.3026
     14 H          59.6615   86.8192   10.0748 H       1  UNL1        0.1495
     15 C          59.3160   86.7886    7.9357 C.3     1  UNL1        0.0924
     16 C          59.0351   88.1768    7.4421 C.3     1  UNL1        0.0594
     17 C          59.8987   89.3199    7.8866 C.3     1  UNL1        0.1950
     18 F          59.8627   89.7756    9.3154 F       1  UNL1       -0.2343
     19 C          61.8084   88.2169   11.5738 C.3     1  UNL1        0.0984
     20 C          62.4820   89.4972   13.1253 C.3     1  UNL1        0.0061
     21 C          62.7182   89.4073   11.6468 C.3     1  UNL1        0.0372
     22 C          62.9544   89.3174   10.1682 C.3     1  UNL1        0.0061
     23 C          63.6280   90.5977   11.7197 C.ar    1  UNL1       -0.0211
     24 C          63.8494   91.4480   10.5040 C.ar    1  UNL1       -0.0034
     25 C          64.7592   92.6384   10.5770 C.ar    1  UNL1        0.0111
     26 C          65.4475   92.9785   11.8657 C.ar    1  UNL1        0.0577
     27 CL         66.3572   94.1689   11.9386 Cl      1  UNL1       -0.0822
     28 C          65.2260   92.1282   13.0814 C.ar    1  UNL1        0.0111
     29 C          64.3162   90.9378   13.0084 C.ar    1  UNL1       -0.0034
@<TRIPOS>BOND
     1    20    21    1
     2    21    22    1
     3    21    19    1
     4    19     1    1
     5     1     2   am
     6     2     3    2
     7     2     4    1
     8     4     5   ar
     9     5     6   ar
    10     6     7   ar
    11     7     8   ar
    12     8     9   ar
    13     9    10    1
    14    10    11    1
    15    11    12    2
    16    11    13   am
    17    13    15    1
    18    15    16    1
    19    16    17    1
    20    17    18    1
    21    21    23    1
    22    23    24   ar
    23    24    25   ar
    24    25    26   ar
    25    26    27    1
    26    26    28   ar
    27    28    29   ar
    28    10     1    1
    29    29    23   ar
    30     9     4   ar
    31    13    14    1
@<TRIPOS>MOLECULE
*****
 29 31 0 0 0
SMALL
GASTEIGER

@<TRIPOS>ATOM
      1 N          61.1588   89.0204   11.5019 N.am    1  UNL1       -0.2658
      2 C          60.3168   89.5142   10.3629 C.2     1  UNL1        0.2493
      3 O          59.6570   90.8582   10.2721 O.2     1  UNL1       -0.2699
      4 C          60.2503   88.4279    9.3306 C.ar    1  UNL1        0.0516
      5 C          59.5640   88.3492    7.9992 C.ar    1  UNL1        0.0043
      6 C          59.6786   87.1054    7.1687 C.ar    1  UNL1        0.0001
      7 C          60.4796   85.9402    7.6697 C.ar    1  UNL1       -0.0003
      8 C          61.1659   86.0189    9.0011 C.ar    1  UNL1       -0.0021
      9 C          61.0513   87.2628    9.8316 C.ar    1  UNL1        0.0089
     10 C          61.6127   87.6290   11.1735 C.3     1  UNL1        0.1751
     11 C          62.4765   86.7568   12.0356 C.2     1  UNL1        0.2449
     12 O          63.6636   87.3410   12.7421 O.2     1  UNL1       -0.2729
     13 N          62.1529   85.3004   12.1913 N.am    1  UNL1       -0.3026
     14 H          61.3737   84.9169   11.7276 H       1  UNL1        0.1495
     15 C          63.0167   84.4282   13.0534 C.3     1  UNL1        0.0924
     16 C          64.2203   83.7514   12.4676 C.3     1  UNL1        0.0594
     17 C          64.1058   83.0105   11.1684 C.3     1  UNL1        0.1950
     18 F          64.1061   83.7652    9.8720 F       1  UNL1       -0.2343
     19 C          61.4888   89.7840   12.7500 C.3     1  UNL1        0.0984
     20 C          62.9027   90.7758   11.5183 C.3     1  UNL1        0.0061
     21 C          62.8707   90.3319   12.9508 C.3     1  UNL1        0.0372
     22 C          62.8386   89.8880   14.3832 C.3     1  UNL1        0.0061
     23 C          64.2526   90.8798   13.1514 C.ar    1  UNL1       -0.0211
     24 C          65.0484   90.4834   14.3595 C.ar    1  UNL1       -0.0034
     25 C          66.4302   91.0313   14.5602 C.ar    1  UNL1        0.0111
     26 C          67.0163   91.9756   13.5528 C.ar    1  UNL1        0.0577
     27 CL         68.3981   92.5235   13.7535 Cl      1  UNL1       -0.0822
     28 C          66.2205   92.3720   12.3447 C.ar    1  UNL1        0.0111
     29 C          64.8386   91.8241   12.1440 C.ar    1  UNL1       -0.0034
@<TRIPOS>BOND
     1    20    21    1
     2    21    22    1
     3    21    19    1
     4    19     1    1
     5     1     2   am
     6     2     3    2
     7     2     4    1
     8     4     5   ar
     9     5     6   ar
    10     6     7   ar
    11     7     8   ar
    12     8     9   ar
    13     9    10    1
    14    10    11    1
    15    11    12    2
    16    11    13   am
    17    13    15    1
    18    15    16    1
    19    16    17    1
    20    17    18    1
    21    21    23    1
    22    23    24   ar
    23    24    25   ar
    24    25    26   ar
    25    26    27    1
    26    26    28   ar
    27    28    29   ar
    28    10     1    1
    29    29    23   ar
    30     9     4   ar
    31    13    14    1
@<TRIPOS>MOLECULE
*****
 29 31 0 0 0
SMALL
GASTEIGER

@<TRIPOS>ATOM
      1 N          62.8589   85.0476   12.3728 N.am    1  UNL1       -0.2658
      2 C          63.0474   84.0101   11.3060 C.2     1  UNL1        0.2493
      3 O          63.2987   84.2767    9.8514 O.2     1  UNL1       -0.2699
      4 C          62.9404   82.6592   11.9491 C.ar    1  UNL1        0.0516
      5 C          63.0419   81.2708   11.3905 C.ar    1  UNL1        0.0043
      6 C          62.8889   80.0850   12.2962 C.ar    1  UNL1        0.0001
      7 C          62.6343   80.2875   13.7605 C.ar    1  UNL1       -0.0003
      8 C          62.5328   81.6759   14.3191 C.ar    1  UNL1       -0.0021
      9 C          62.6858   82.8617   13.4134 C.ar    1  UNL1        0.0089
     10 C          62.6354   84.3378   13.6752 C.3     1  UNL1        0.1751
     11 C          62.4025   84.9897   15.0059 C.2     1  UNL1        0.2449
     12 O          61.0337   84.9748   15.6191 O.2     1  UNL1       -0.2729
     13 N          63.5385   85.6566   15.7236 N.am    1  UNL1       -0.3026
     14 H          64.4370   85.6664   15.3212 H       1  UNL1        0.1495
     15 C          63.3056   86.3085   17.0543 C.3     1  UNL1        0.0924
     16 C          62.7668   87.7068   17.1203 C.3     1  UNL1        0.0594
     17 C          63.3763   88.7860   16.2753 C.3     1  UNL1        0.1950
     18 F          63.4461   90.1929   16.7911 F       1  UNL1       -0.2343
     19 C          62.8886   86.5339   12.1724 C.3     1  UNL1        0.0984
     20 C          62.9138   88.4094   11.1816 C.3     1  UNL1        0.0061
     21 C          62.0977   87.1567   11.0605 C.3     1  UNL1        0.0372
     22 C          61.2816   85.9040   10.9393 C.3     1  UNL1        0.0061
     23 C          61.3067   87.7796    9.9485 C.ar    1  UNL1       -0.0211
     24 C          61.2043   89.2726    9.8460 C.ar    1  UNL1       -0.0034
     25 C          60.4134   89.8955    8.7341 C.ar    1  UNL1        0.0111
     26 C          59.7248   89.0254    7.7246 C.ar    1  UNL1        0.0577
     27 CL         58.9339   89.6484    6.6127 Cl      1  UNL1       -0.0822
     28 C          59.8272   87.5325    7.8272 C.ar    1  UNL1        0.0111
     29 C          60.6182   86.9095    8.9391 C.ar    1  UNL1       -0.0034
@<TRIPOS>BOND
     1    20    21    1
     2    21    22    1
     3    21    19    1
     4    19     1    1
     5     1     2   am
     6     2     3    2
     7     2     4    1
     8     4     5   ar
     9     5     6   ar
    10     6     7   ar
    11     7     8   ar
    12     8     9   ar
    13     9    10    1
    14    10    11    1
    15    11    12    2
    16    11    13   am
    17    13    15    1
    18    15    16    1
    19    16    17    1
    20    17    18    1
    21    21    23    1
    22    23    24   ar
    23    24    25   ar
    24    25    26   ar
    25    26    27    1
    26    26    28   ar
    27    28    29   ar
    28    10     1    1
    29    29    23   ar
    30     9     4   ar
    31    13    14    1
@<TRIPOS>MOLECULE
*****
 29 31 0 0 0
SMALL
GASTEIGER

@<TRIPOS>ATOM
      1 N          64.6369   91.8011   13.3059 N.am    1  UNL1       -0.2658
      2 C          64.7599   91.7386   14.7995 C.2     1  UNL1        0.2493
      3 O          63.6583   91.4056   15.7617 O.2     1  UNL1       -0.2699
      4 C          66.1777   92.0676   15.1621 C.ar    1  UNL1        0.0516
      5 C          66.8801   92.1595   16.4843 C.ar    1  UNL1        0.0043
      6 C          68.3358   92.5172   16.5369 C.ar    1  UNL1        0.0001
      7 C          69.0892   92.7830   15.2673 C.ar    1  UNL1       -0.0003
      8 C          68.3868   92.6911   13.9452 C.ar    1  UNL1       -0.0021
      9 C          66.9311   92.3334   13.8926 C.ar    1  UNL1        0.0089
     10 C          65.9788   92.1687   12.7454 C.3     1  UNL1        0.1751
     11 C          66.3103   92.3413   11.2927 C.2     1  UNL1        0.2449
     12 O          65.2206   92.6341   10.3044 O.2     1  UNL1       -0.2729
     13 N          67.7316   92.2212   10.8283 N.am    1  UNL1       -0.3026
     14 H          68.4468   92.0290   11.4769 H       1  UNL1        0.1495
     15 C          68.0631   92.3938    9.3755 C.3     1  UNL1        0.0924
     16 C          68.4241   93.7494    8.8447 C.3     1  UNL1        0.0594
     17 C          67.3521   94.7710    8.6054 C.3     1  UNL1        0.1950
     18 F          67.7223   96.1616    8.1821 F       1  UNL1       -0.2343
     19 C          63.3909   91.5415   12.5121 C.3     1  UNL1        0.0984
     20 C          62.4937   90.7554   10.7580 C.3     1  UNL1        0.0061
     21 C          63.1059   90.1635   11.9929 C.3     1  UNL1        0.0372
     22 C          63.7180   89.5716   13.2277 C.3     1  UNL1        0.0061
     23 C          62.8208   88.7854   11.4735 C.ar    1  UNL1       -0.0211
     24 C          63.0661   87.5897   12.3454 C.ar    1  UNL1       -0.0034
     25 C          62.7811   86.2116   11.8262 C.ar    1  UNL1        0.0111
     26 C          62.2507   86.0292   10.4349 C.ar    1  UNL1        0.0577
     27 CL         61.9657   84.6511    9.9157 Cl      1  UNL1       -0.0822
     28 C          62.0054   87.2248    9.5630 C.ar    1  UNL1        0.0111
     29 C          62.2905   88.6030   10.0824 C.ar    1  UNL1       -0.0034
@<TRIPOS>BOND
     1    20    21    1
     2    21    22    1
     3    21    19    1
     4    19     1    1
     5     1     2   am
     6     2     3    2
     7     2     4    1
     8     4     5   ar
     9     5     6   ar
    10     6     7   ar
    11     7     8   ar
    12     8     9   ar
    13     9    10    1
    14    10    11    1
    15    11    12    2
    16    11    13   am
    17    13    15    1
    18    15    16    1
    19    16    17    1
    20    17    18    1
    21    21    23    1
    22    23    24   ar
    23    24    25   ar
    24    25    26   ar
    25    26    27    1
    26    26    28   ar
    27    28    29   ar
    28    10     1    1
    29    29    23   ar
    30     9     4   ar
    31    13    14    1
@<TRIPOS>MOLECULE
*****
 29 31 0 0 0
SMALL
GASTEIGER

@<TRIPOS>ATOM
      1 N          62.3485   86.3146   11.8612 N.am    1  UNL1       -0.2658
      2 C          62.6368   85.8118   10.4777 C.2     1  UNL1        0.2493
      3 O          62.3862   86.5554    9.1993 O.2     1  UNL1       -0.2699
      4 C          63.2198   84.4349   10.5970 C.ar    1  UNL1        0.0516
      5 C          63.6943   83.4532    9.5669 C.ar    1  UNL1        0.0043
      6 C          64.2409   82.1233    9.9941 C.ar    1  UNL1        0.0001
      7 C          64.3128   81.7750   11.4514 C.ar    1  UNL1       -0.0003
      8 C          63.8382   82.7567   12.4814 C.ar    1  UNL1       -0.0021
      9 C          63.2917   84.0866   12.0542 C.ar    1  UNL1        0.0089
     10 C          62.7532   85.2483   12.8355 C.3     1  UNL1        0.1751
     11 C          62.6395   85.3295   14.3290 C.2     1  UNL1        0.2449
     12 O          61.4294   84.7750   15.0203 O.2     1  UNL1       -0.2729
     13 N          63.7360   85.9654   15.1313 N.am    1  UNL1       -0.3026
     14 H          64.5303   86.3294   14.6776 H       1  UNL1        0.1495
     15 C          63.6223   86.0466   16.6248 C.3     1  UNL1        0.0924
     16 C          62.7731   87.1100   17.2554 C.3     1  UNL1        0.0594
     17 C          63.1491   88.5547   17.1092 C.3     1  UNL1        0.1950
     18 F          62.5026   89.3943   16.0474 F       1  UNL1       -0.2343
     19 C          61.7590   87.6492   12.2093 C.3     1  UNL1        0.0984
     20 C          61.5268   89.3656   10.9845 C.3     1  UNL1        0.0061
     21 C          62.5506   88.9021   11.9780 C.3     1  UNL1        0.0372
     22 C          63.5743   88.4387   12.9715 C.3     1  UNL1        0.0061
     23 C          63.3422   90.1551   11.7467 C.ar    1  UNL1       -0.0211
     24 C          63.2919   90.8384   10.4123 C.ar    1  UNL1       -0.0034
     25 C          64.0835   92.0913   10.1809 C.ar    1  UNL1        0.0111
     26 C          64.9254   92.6611   11.2840 C.ar    1  UNL1        0.0577
     27 CL         65.7169   93.9140   11.0526 Cl      1  UNL1       -0.0822
     28 C          64.9756   91.9778   12.6184 C.ar    1  UNL1        0.0111
     29 C          64.1840   90.7248   12.8497 C.ar    1  UNL1       -0.0034
@<TRIPOS>BOND
     1    20    21    1
     2    21    22    1
     3    21    19    1
     4    19     1    1
     5     1     2   am
     6     2     3    2
     7     2     4    1
     8     4     5   ar
     9     5     6   ar
    10     6     7   ar
    11     7     8   ar
    12     8     9   ar
    13     9    10    1
    14    10    11    1
    15    11    12    2
    16    11    13   am
    17    13    15    1
    18    15    16    1
    19    16    17    1
    20    17    18    1
    21    21    23    1
    22    23    24   ar
    23    24    25   ar
    24    25    26   ar
    25    26    27    1
    26    26    28   ar
    27    28    29   ar
    28    10     1    1
    29    29    23   ar
    30     9     4   ar
    31    13    14    1
@<TRIPOS>MOLECULE
*****
 29 31 0 0 0
SMALL
GASTEIGER

@<TRIPOS>ATOM
      1 N          62.9306   87.9287   12.9377 N.am    1  UNL1       -0.2658
      2 C          63.6437   86.9331   13.8039 C.2     1  UNL1        0.2493
      3 O          64.2113   87.1974   15.1670 O.2     1  UNL1       -0.2699
      4 C          63.6894   85.6270   13.0679 C.ar    1  UNL1        0.0516
      5 C          64.2662   84.2905   13.4300 C.ar    1  UNL1        0.0043
      6 C          64.1581   83.1423   12.4709 C.ar    1  UNL1        0.0001
      7 C          63.4734   83.3306   11.1496 C.ar    1  UNL1       -0.0003
      8 C          62.8967   84.6671   10.7875 C.ar    1  UNL1       -0.0021
      9 C          63.0047   85.8153   11.7466 C.ar    1  UNL1        0.0089
     10 C          62.5357   87.2378   11.6662 C.3     1  UNL1        0.1751
     11 C          61.8009   87.8602   10.5161 C.2     1  UNL1        0.2449
     12 O          62.5346   88.7320    9.5408 O.2     1  UNL1       -0.2729
     13 N          60.3320   87.6106   10.3414 N.am    1  UNL1       -0.3026
     14 H          59.8504   87.0383   10.9815 H       1  UNL1        0.1495
     15 C          59.5972   88.2330    9.1913 C.3     1  UNL1        0.0924
     16 C          59.5038   87.5088    7.8810 C.3     1  UNL1        0.0594
     17 C          60.0294   86.1093    7.7585 C.3     1  UNL1        0.1950
     18 F          61.5045   85.8516    7.8480 F       1  UNL1       -0.2343
     19 C          62.6600   89.3633   13.2824 C.3     1  UNL1        0.0984
     20 C          62.5438   90.7799   11.7077 C.3     1  UNL1        0.0061
     21 C          63.5598   90.4431   12.7586 C.3     1  UNL1        0.0372
     22 C          64.5757   90.1062   13.8094 C.3     1  UNL1        0.0061
     23 C          64.4596   91.5229   12.2347 C.ar    1  UNL1       -0.0211
     24 C          64.3678   91.9443   10.7980 C.ar    1  UNL1       -0.0034
     25 C          65.2675   93.0241   10.2742 C.ar    1  UNL1        0.0111
     26 C          66.2591   93.6826   11.1870 C.ar    1  UNL1        0.0577
     27 CL         67.1588   94.7624   10.6631 Cl      1  UNL1       -0.0822
     28 C          66.3509   93.2612   12.6237 C.ar    1  UNL1        0.0111
     29 C          65.4511   92.1814   13.1475 C.ar    1  UNL1       -0.0034
@<TRIPOS>BOND
     1    20    21    1
     2    21    22    1
     3    21    19    1
     4    19     1    1
     5     1     2   am
     6     2     3    2
     7     2     4    1
     8     4     5   ar
     9     5     6   ar
    10     6     7   ar
    11     7     8   ar
    12     8     9   ar
    13     9    10    1
    14    10    11    1
    15    11    12    2
    16    11    13   am
    17    13    15    1
    18    15    16    1
    19    16    17    1
    20    17    18    1
    21    21    23    1
    22    23    24   ar
    23    24    25   ar
    24    25    26   ar
    25    26    27    1
    26    26    28   ar
    27    28    29   ar
    28    10     1    1
    29    29    23   ar
    30     9     4   ar
    31    13    14    1
