@<TRIPOS>MOLECULE
*****
 27 29 0 0 0
SMALL
GASTEIGER

@<TRIPOS>ATOM
      1 N          64.3520   87.8791   14.6139 N.am    1  UNL1       -0.2987
      2 C          63.7981   89.2731   14.6193 C.2     1  UNL1        0.2460
      3 O          62.6157   89.6070   15.4798 O.2     1  UNL1       -0.2701
      4 H          65.1280   87.6600   14.0492 H       1  UNL1        0.1500
      5 C          64.4267   90.3332   13.7642 C.ar    1  UNL1        0.0534
      6 C          63.8282   90.6745   12.4318 C.ar    1  UNL1        0.0045
      7 C          64.4568   91.7346   11.5767 C.ar    1  UNL1        0.0002
      8 C          65.6838   92.4533   12.0541 C.ar    1  UNL1        0.0023
      9 C          66.2822   92.1120   13.3865 C.ar    1  UNL1        0.0002
     10 C          65.6537   91.0519   14.2416 C.ar    1  UNL1        0.0045
     11 C          66.3124   93.5134   11.1990 C.ar    1  UNL1        0.0306
     12 C          66.0118   94.9604   11.4563 C.ar    1  UNL1        0.0229
     13 C          66.6403   96.0205   10.6012 C.ar    1  UNL1        0.0990
     14 N          67.5695   95.6336    9.4889 N.ar    1  UNL1       -0.2400
     15 C          67.8700   94.1867    9.2317 C.ar    1  UNL1        0.1284
     16 C          67.2414   93.1266   10.0868 C.ar    1  UNL1        0.1591
     17 F          67.5420   91.6797    9.8295 F       1  UNL1       -0.2025
     18 C          63.7234   86.8191   15.4690 C.3     1  UNL1        0.0945
     19 C          63.3101   87.1373   16.8753 C.3     1  UNL1        0.0262
     20 C          63.9909   83.6410   13.1071 C.ar    1  UNL1        0.1385
     21 C          63.0780   82.6841   13.8150 C.ar    1  UNL1        0.0369
     22 C          62.3802   83.1056   15.0741 C.ar    1  UNL1        0.0028
     23 C          62.5953   84.4839   15.6255 C.ar    1  UNL1       -0.0025
     24 C          63.5083   85.4407   14.9177 C.ar    1  UNL1       -0.0015
     25 C          64.2060   85.0192   13.6585 C.ar    1  UNL1        0.0342
     26 C          63.9200   83.1125   10.5644 C.3     1  UNL1        0.2525
     27 O          64.6886   83.2195   11.8480 O.3     1  UNL1       -0.4714
@<TRIPOS>BOND
     1    26    27    1
     2    27    20    1
     3    20    21   ar
     4    21    22   ar
     5    22    23   ar
     6    23    24   ar
     7    24    18    1
     8    18    19    1
     9    18     1    1
    10     1     2   am
    11     2     3    2
    12     2     5    1
    13     5     6   ar
    14     6     7   ar
    15     7     8   ar
    16     8    11    1
    17    11    12   ar
    18    12    13   ar
    19    13    14   ar
    20    14    15   ar
    21    15    16   ar
    22    16    17    1
    23     8     9   ar
    24     9    10   ar
    25    24    25   ar
    26    25    20   ar
    27    10     5   ar
    28    16    11   ar
    29     1     4    1
@<TRIPOS>MOLECULE
*****
 27 29 0 0 0
SMALL
GASTEIGER

@<TRIPOS>ATOM
      1 N          63.9520   90.6646   14.0725 N.am    1  UNL1       -0.2987
      2 C          64.0042   89.1774   13.8841 C.2     1  UNL1        0.2460
      3 O          64.7178   88.3190   14.8862 O.2     1  UNL1       -0.2701
      4 H          63.4837   91.2279   13.4148 H       1  UNL1        0.1500
      5 C          63.3429   88.5485   12.6936 C.ar    1  UNL1        0.0534
      6 C          62.8762   89.4061   11.5548 C.ar    1  UNL1        0.0045
      7 C          62.2149   88.7772   10.3644 C.ar    1  UNL1        0.0002
      8 C          62.0202   87.2907   10.3128 C.ar    1  UNL1        0.0023
      9 C          62.4869   86.4332   11.4515 C.ar    1  UNL1        0.0002
     10 C          63.1482   87.0621   12.6420 C.ar    1  UNL1        0.0045
     11 C          61.3589   86.6618    9.1223 C.ar    1  UNL1        0.0306
     12 C          59.9285   86.9815    8.8030 C.ar    1  UNL1        0.0229
     13 C          59.2672   86.3526    7.6126 C.ar    1  UNL1        0.0990
     14 N          60.0363   85.4041    6.7414 N.ar    1  UNL1       -0.2400
     15 C          61.4666   85.0844    7.0607 C.ar    1  UNL1        0.1284
     16 C          62.1279   85.7133    8.2512 C.ar    1  UNL1        0.1591
     17 F          63.5583   85.3936    8.5705 F       1  UNL1       -0.2025
     18 C          64.6133   91.2934   15.2629 C.3     1  UNL1        0.0945
     19 C          63.8721   91.4018   16.5624 C.3     1  UNL1        0.0262
     20 C          68.2217   92.0715   13.8054 C.ar    1  UNL1        0.1385
     21 C          68.8209   92.8550   14.9354 C.ar    1  UNL1        0.0369
     22 C          68.0177   93.1181   16.1746 C.ar    1  UNL1        0.0028
     23 C          66.6151   92.5976   16.2837 C.ar    1  UNL1       -0.0025
     24 C          66.0159   91.8140   15.1538 C.ar    1  UNL1       -0.0015
     25 C          66.8192   91.5509   13.9146 C.ar    1  UNL1        0.0342
     26 C          68.3780   91.9122   11.2170 C.3     1  UNL1        0.2525
     27 O          69.0250   91.8084   12.5662 O.3     1  UNL1       -0.4714
@<TRIPOS>BOND
     1    26    27    1
     2    27    20    1
     3    20    21   ar
     4    21    22   ar
     5    22    23   ar
     6    23    24   ar
     7    24    18    1
     8    18    19    1
     9    18     1    1
    10     1     2   am
    11     2     3    2
    12     2     5    1
    13     5     6   ar
    14     6     7   ar
    15     7     8   ar
    16     8    11    1
    17    11    12   ar
    18    12    13   ar
    19    13    14   ar
    20    14    15   ar
    21    15    16   ar
    22    16    17    1
    23     8     9   ar
    24     9    10   ar
    25    24    25   ar
    26    25    20   ar
    27    10     5   ar
    28    16    11   ar
    29     1     4    1
@<TRIPOS>MOLECULE
*****
 27 29 0 0 0
SMALL
GASTEIGER

@<TRIPOS>ATOM
      1 N          61.5142   88.8380   11.9258 N.am    1  UNL1       -0.2987
      2 C          62.2719   90.0036   11.3626 C.2     1  UNL1        0.2460
      3 O          61.8455   90.6176   10.0620 O.2     1  UNL1       -0.2701
      4 H          61.7941   88.4350   12.7793 H       1  UNL1        0.1500
      5 C          63.4560   90.5553   12.0998 C.ar    1  UNL1        0.0534
      6 C          63.8573   89.9682   13.4206 C.ar    1  UNL1        0.0045
      7 C          65.0414   90.5198   14.1578 C.ar    1  UNL1        0.0002
      8 C          65.8243   91.6586   13.5743 C.ar    1  UNL1        0.0023
      9 C          65.4230   92.2456   12.2536 C.ar    1  UNL1        0.0002
     10 C          64.2389   91.6940   11.5163 C.ar    1  UNL1        0.0045
     11 C          67.0084   92.2103   14.3116 C.ar    1  UNL1        0.0306
     12 C          66.8111   92.9459   15.6039 C.ar    1  UNL1        0.0229
     13 C          67.9952   93.4976   16.3411 C.ar    1  UNL1        0.0990
     14 N          69.3766   93.3136   15.7861 N.ar    1  UNL1       -0.2400
     15 C          69.5738   92.5780   14.4938 C.ar    1  UNL1        0.1284
     16 C          68.3897   92.0263   13.7566 C.ar    1  UNL1        0.1591
     17 F          68.5870   91.2907   12.4642 F       1  UNL1       -0.2025
     18 C          60.3301   88.2863   11.1885 C.3     1  UNL1        0.0945
     19 C          58.9408   88.6066   11.6543 C.3     1  UNL1        0.0262
     20 C          61.9846   85.7128    8.6607 C.ar    1  UNL1        0.1385
     21 C          60.9461   85.6703    7.5792 C.ar    1  UNL1        0.0369
     22 C          59.7023   86.4999    7.7008 C.ar    1  UNL1        0.0028
     23 C          59.4969   87.3718    8.9038 C.ar    1  UNL1       -0.0025
     24 C          60.5354   87.4143    9.9853 C.ar    1  UNL1       -0.0015
     25 C          61.7793   86.5848    9.8638 C.ar    1  UNL1        0.0342
     26 C          63.6364   83.9745    9.6605 C.3     1  UNL1        0.2525
     27 O          63.2284   84.8833    8.5391 O.3     1  UNL1       -0.4714
@<TRIPOS>BOND
     1    26    27    1
     2    27    20    1
     3    20    21   ar
     4    21    22   ar
     5    22    23   ar
     6    23    24   ar
     7    24    18    1
     8    18    19    1
     9    18     1    1
    10     1     2   am
    11     2     3    2
    12     2     5    1
    13     5     6   ar
    14     6     7   ar
    15     7     8   ar
    16     8    11    1
    17    11    12   ar
    18    12    13   ar
    19    13    14   ar
    20    14    15   ar
    21    15    16   ar
    22    16    17    1
    23     8     9   ar
    24     9    10   ar
    25    24    25   ar
    26    25    20   ar
    27    10     5   ar
    28    16    11   ar
    29     1     4    1
@<TRIPOS>MOLECULE
*****
 27 29 0 0 0
SMALL
GASTEIGER

@<TRIPOS>ATOM
      1 N          65.8232   90.8556   13.6913 N.am    1  UNL1       -0.2987
      2 C          64.4725   90.3255   14.0717 C.2     1  UNL1        0.2460
      3 O          63.4438   91.2458   14.6589 O.2     1  UNL1       -0.2701
      4 H          66.4984   90.2516   13.3059 H       1  UNL1        0.1500
      5 C          64.1506   88.8752   13.8648 C.ar    1  UNL1        0.0534
      6 C          64.5887   87.8580   14.8765 C.ar    1  UNL1        0.0045
      7 C          64.2668   86.4076   14.6696 C.ar    1  UNL1        0.0002
      8 C          63.5067   85.9744   13.4511 C.ar    1  UNL1        0.0023
      9 C          63.0686   86.9916   12.4395 C.ar    1  UNL1        0.0002
     10 C          63.3906   88.4420   12.6464 C.ar    1  UNL1        0.0045
     11 C          63.1847   84.5241   13.2442 C.ar    1  UNL1        0.0306
     12 C          63.5828   83.8420   11.9689 C.ar    1  UNL1        0.0229
     13 C          63.2608   82.3916   11.7620 C.ar    1  UNL1        0.0990
     14 N          62.5409   81.6234   12.8305 N.ar    1  UNL1       -0.2400
     15 C          62.1429   82.3055   14.1057 C.ar    1  UNL1        0.1284
     16 C          62.4648   83.7558   14.3126 C.ar    1  UNL1        0.1591
     17 F          62.0668   84.4380   15.5879 F       1  UNL1       -0.2025
     18 C          66.1451   92.3060   13.8982 C.3     1  UNL1        0.0945
     19 C          66.2372   92.8630   15.2879 C.3     1  UNL1        0.0262
     20 C          67.0825   93.5110   10.2350 C.ar    1  UNL1        0.1385
     21 C          66.8347   94.9859   10.3496 C.ar    1  UNL1        0.0369
     22 C          66.3570   95.5675   11.6471 C.ar    1  UNL1        0.0028
     23 C          66.1271   94.6743   12.8300 C.ar    1  UNL1       -0.0025
     24 C          66.3750   93.1994   12.7153 C.ar    1  UNL1       -0.0015
     25 C          66.8527   92.6177   11.4178 C.ar    1  UNL1        0.0342
     26 C          68.9115   92.2831    8.8576 C.3     1  UNL1        0.2525
     27 O          67.5602   92.9294    8.9375 O.3     1  UNL1       -0.4714
@<TRIPOS>BOND
     1    26    27    1
     2    27    20    1
     3    20    21   ar
     4    21    22   ar
     5    22    23   ar
     6    23    24   ar
     7    24    18    1
     8    18    19    1
     9    18     1    1
    10     1     2   am
    11     2     3    2
    12     2     5    1
    13     5     6   ar
    14     6     7   ar
    15     7     8   ar
    16     8    11    1
    17    11    12   ar
    18    12    13   ar
    19    13    14   ar
    20    14    15   ar
    21    15    16   ar
    22    16    17    1
    23     8     9   ar
    24     9    10   ar
    25    24    25   ar
    26    25    20   ar
    27    10     5   ar
    28    16    11   ar
    29     1     4    1
@<TRIPOS>MOLECULE
*****
 27 29 0 0 0
SMALL
GASTEIGER

@<TRIPOS>ATOM
      1 N          65.9180   90.5943   14.0232 N.am    1  UNL1       -0.2987
      2 C          64.5120   90.1040   13.8423 C.2     1  UNL1        0.2460
      3 O          63.3885   91.0865   13.6922 O.2     1  UNL1       -0.2701
      4 H          66.6553   89.9494   14.1217 H       1  UNL1        0.1500
      5 C          64.2294   88.6312   13.8116 C.ar    1  UNL1        0.0534
      6 C          63.4604   88.0388   12.6679 C.ar    1  UNL1        0.0045
      7 C          63.1778   86.5660   12.6372 C.ar    1  UNL1        0.0002
      8 C          63.6642   85.6855   13.7500 C.ar    1  UNL1        0.0023
      9 C          64.4331   86.2779   14.8935 C.ar    1  UNL1        0.0002
     10 C          64.7157   87.7507   14.9243 C.ar    1  UNL1        0.0045
     11 C          63.3816   84.2127   13.7192 C.ar    1  UNL1        0.0306
     12 C          64.2081   83.3084   12.8537 C.ar    1  UNL1        0.0229
     13 C          63.9255   81.8356   12.8229 C.ar    1  UNL1        0.0990
     14 N          62.8164   81.2671   13.6577 N.ar    1  UNL1       -0.2400
     15 C          61.9899   82.1714   14.5232 C.ar    1  UNL1        0.1284
     16 C          62.2725   83.6442   14.5539 C.ar    1  UNL1        0.1591
     17 F          61.4460   84.5486   15.4195 F       1  UNL1       -0.2025
     18 C          66.2006   92.0671   14.0540 C.3     1  UNL1        0.0945
     19 C          66.2371   92.7965   15.3641 C.3     1  UNL1        0.0262
     20 C          66.2777   94.9898   11.3704 C.ar    1  UNL1        0.1385
     21 C          66.9389   94.2971   10.2158 C.ar    1  UNL1        0.0369
     22 C          67.3540   92.8611   10.3406 C.ar    1  UNL1        0.0028
     23 C          67.1079   92.1178   11.6200 C.ar    1  UNL1       -0.0025
     24 C          66.4467   92.8104   12.7745 C.ar    1  UNL1       -0.0015
     25 C          66.0316   94.2464   12.6497 C.ar    1  UNL1        0.0342
     26 C          64.9627   96.8516   10.1236 C.3     1  UNL1        0.2525
     27 O          65.8626   96.4258   11.2455 O.3     1  UNL1       -0.4714
@<TRIPOS>BOND
     1    26    27    1
     2    27    20    1
     3    20    21   ar
     4    21    22   ar
     5    22    23   ar
     6    23    24   ar
     7    24    18    1
     8    18    19    1
     9    18     1    1
    10     1     2   am
    11     2     3    2
    12     2     5    1
    13     5     6   ar
    14     6     7   ar
    15     7     8   ar
    16     8    11    1
    17    11    12   ar
    18    12    13   ar
    19    13    14   ar
    20    14    15   ar
    21    15    16   ar
    22    16    17    1
    23     8     9   ar
    24     9    10   ar
    25    24    25   ar
    26    25    20   ar
    27    10     5   ar
    28    16    11   ar
    29     1     4    1
@<TRIPOS>MOLECULE
*****
 27 29 0 0 0
SMALL
GASTEIGER

@<TRIPOS>ATOM
      1 N          64.3174   88.7470   14.5727 N.am    1  UNL1       -0.2987
      2 C          63.4313   88.3048   13.4461 C.2     1  UNL1        0.2460
      3 O          62.6447   89.3181   12.6685 O.2     1  UNL1       -0.2701
      4 H          64.8337   88.0819   15.0830 H       1  UNL1        0.1500
      5 C          63.3317   86.8494   13.0971 C.ar    1  UNL1        0.0534
      6 C          63.9864   85.8218   13.9720 C.ar    1  UNL1        0.0045
      7 C          63.8868   84.3664   13.6230 C.ar    1  UNL1        0.0002
      8 C          63.1325   83.9385   12.3990 C.ar    1  UNL1        0.0023
      9 C          62.4779   84.9661   11.5241 C.ar    1  UNL1        0.0002
     10 C          62.5775   86.4215   11.8731 C.ar    1  UNL1        0.0045
     11 C          63.0329   82.4831   12.0500 C.ar    1  UNL1        0.0306
     12 C          62.5515   81.4977   13.0733 C.ar    1  UNL1        0.0229
     13 C          62.4520   80.0422   12.7243 C.ar    1  UNL1        0.0990
     14 N          62.8338   79.5723   11.3519 N.ar    1  UNL1       -0.2400
     15 C          63.3151   80.5577   10.3286 C.ar    1  UNL1        0.1284
     16 C          63.4147   82.0131   10.6776 C.ar    1  UNL1        0.1591
     17 F          63.8961   82.9986    9.6543 F       1  UNL1       -0.2025
     18 C          64.4170   90.2024   14.9217 C.3     1  UNL1        0.0945
     19 C          63.6211   90.7553   16.0666 C.3     1  UNL1        0.0262
     20 C          67.5575   92.3863   13.8643 C.ar    1  UNL1        0.1385
     21 C          67.1037   92.9100   12.5341 C.ar    1  UNL1        0.0369
     22 C          65.7543   92.5312   11.9996 C.ar    1  UNL1        0.0028
     23 C          64.8588   91.6287   12.7955 C.ar    1  UNL1       -0.0025
     24 C          65.3126   91.1050   14.1258 C.ar    1  UNL1       -0.0015
     25 C          66.6620   91.4838   14.6602 C.ar    1  UNL1        0.0342
     26 C          69.0220   93.4480   15.7293 C.3     1  UNL1        0.2525
     27 O          68.9069   92.7651   14.3988 O.3     1  UNL1       -0.4714
@<TRIPOS>BOND
     1    26    27    1
     2    27    20    1
     3    20    21   ar
     4    21    22   ar
     5    22    23   ar
     6    23    24   ar
     7    24    18    1
     8    18    19    1
     9    18     1    1
    10     1     2   am
    11     2     3    2
    12     2     5    1
    13     5     6   ar
    14     6     7   ar
    15     7     8   ar
    16     8    11    1
    17    11    12   ar
    18    12    13   ar
    19    13    14   ar
    20    14    15   ar
    21    15    16   ar
    22    16    17    1
    23     8     9   ar
    24     9    10   ar
    25    24    25   ar
    26    25    20   ar
    27    10     5   ar
    28    16    11   ar
    29     1     4    1
@<TRIPOS>MOLECULE
*****
 27 29 0 0 0
SMALL
GASTEIGER

@<TRIPOS>ATOM
      1 N          61.5492   88.6213   11.7999 N.am    1  UNL1       -0.2987
      2 C          62.0900   89.9851   11.4879 C.2     1  UNL1        0.2460
      3 O          61.4247   90.8356   10.4467 O.2     1  UNL1       -0.2701
      4 H          61.9858   88.0631   12.4832 H       1  UNL1        0.1500
      5 C          63.2962   90.4985   12.2170 C.ar    1  UNL1        0.0534
      6 C          64.1000   91.6246   11.6374 C.ar    1  UNL1        0.0045
      7 C          65.3061   92.1379   12.3665 C.ar    1  UNL1        0.0002
      8 C          65.7085   91.5252   13.6753 C.ar    1  UNL1        0.0023
      9 C          64.9047   90.3992   14.2548 C.ar    1  UNL1        0.0002
     10 C          63.6985   89.8858   13.5257 C.ar    1  UNL1        0.0045
     11 C          66.9146   92.0386   14.4044 C.ar    1  UNL1        0.0306
     12 C          68.2661   91.9745   13.7568 C.ar    1  UNL1        0.0229
     13 C          69.4723   92.4879   14.4859 C.ar    1  UNL1        0.0990
     14 N          69.3269   93.0654   15.8627 N.ar    1  UNL1       -0.2400
     15 C          67.9755   93.1295   16.5103 C.ar    1  UNL1        0.1284
     16 C          66.7693   92.6161   15.7811 C.ar    1  UNL1        0.1591
     17 F          65.4178   92.6802   16.4288 F       1  UNL1       -0.2025
     18 C          60.3430   88.1079   11.0708 C.3     1  UNL1        0.0945
     19 C          58.9677   88.4505   11.5616 C.3     1  UNL1        0.0262
     20 C          61.9233   85.5721    8.4588 C.ar    1  UNL1        0.1385
     21 C          60.8508   85.5397    7.4106 C.ar    1  UNL1        0.0369
     22 C          59.6090   86.3634    7.5825 C.ar    1  UNL1        0.0028
     23 C          59.4397   87.2194    8.8025 C.ar    1  UNL1       -0.0025
     24 C          60.5122   87.2518    9.8507 C.ar    1  UNL1       -0.0015
     25 C          61.7540   86.4281    9.6788 C.ar    1  UNL1        0.0342
     26 C          63.6899   83.9348    9.4325 C.3     1  UNL1        0.2525
     27 O          63.1650   84.7484    8.2869 O.3     1  UNL1       -0.4714
@<TRIPOS>BOND
     1    26    27    1
     2    27    20    1
     3    20    21   ar
     4    21    22   ar
     5    22    23   ar
     6    23    24   ar
     7    24    18    1
     8    18    19    1
     9    18     1    1
    10     1     2   am
    11     2     3    2
    12     2     5    1
    13     5     6   ar
    14     6     7   ar
    15     7     8   ar
    16     8    11    1
    17    11    12   ar
    18    12    13   ar
    19    13    14   ar
    20    14    15   ar
    21    15    16   ar
    22    16    17    1
    23     8     9   ar
    24     9    10   ar
    25    24    25   ar
    26    25    20   ar
    27    10     5   ar
    28    16    11   ar
    29     1     4    1
@<TRIPOS>MOLECULE
*****
 27 29 0 0 0
SMALL
GASTEIGER

@<TRIPOS>ATOM
      1 N          64.0659   86.6735   14.0454 N.am    1  UNL1       -0.2987
      2 C          63.8795   87.9847   14.7496 C.2     1  UNL1        0.2460
      3 O          63.2623   88.0210   16.1163 O.2     1  UNL1       -0.2701
      4 H          64.4710   86.6498   13.1484 H       1  UNL1        0.1500
      5 C          64.3104   89.2597   14.0872 C.ar    1  UNL1        0.0534
      6 C          63.6333   89.7174   12.8293 C.ar    1  UNL1        0.0045
      7 C          64.0641   90.9924   12.1669 C.ar    1  UNL1        0.0002
      8 C          65.1720   91.8097   12.7624 C.ar    1  UNL1        0.0023
      9 C          65.8491   91.3521   14.0203 C.ar    1  UNL1        0.0002
     10 C          65.4182   90.0771   14.6826 C.ar    1  UNL1        0.0045
     11 C          65.6029   93.0847   12.1000 C.ar    1  UNL1        0.0306
     12 C          65.4862   93.2334   10.6119 C.ar    1  UNL1        0.0229
     13 C          65.9170   94.5084    9.9496 C.ar    1  UNL1        0.0990
     14 N          66.4646   95.6347   10.7753 N.ar    1  UNL1       -0.2400
     15 C          66.5812   95.4860   12.2633 C.ar    1  UNL1        0.1284
     16 C          66.1504   94.2110   12.9257 C.ar    1  UNL1        0.1591
     17 F          66.2671   94.0623   14.4138 F       1  UNL1       -0.2025
     18 C          63.6351   85.3985   14.7078 C.3     1  UNL1        0.0945
     19 C          63.5420   85.3244   16.2030 C.3     1  UNL1        0.0262
     20 C          62.2685   81.8210   13.6667 C.ar    1  UNL1        0.1385
     21 C          62.6218   81.7958   12.2091 C.ar    1  UNL1        0.0369
     22 C          63.3129   82.9714   11.5845 C.ar    1  UNL1        0.0028
     23 C          63.6507   84.1723   12.4173 C.ar    1  UNL1       -0.0025
     24 C          63.2973   84.1976   13.8748 C.ar    1  UNL1       -0.0015
     25 C          62.6063   83.0219   14.4995 C.ar    1  UNL1        0.0342
     26 C          60.0862   80.5143   14.1960 C.3     1  UNL1        0.2525
     27 O          61.5774   80.6453   14.2914 O.3     1  UNL1       -0.4714
@<TRIPOS>BOND
     1    26    27    1
     2    27    20    1
     3    20    21   ar
     4    21    22   ar
     5    22    23   ar
     6    23    24   ar
     7    24    18    1
     8    18    19    1
     9    18     1    1
    10     1     2   am
    11     2     3    2
    12     2     5    1
    13     5     6   ar
    14     6     7   ar
    15     7     8   ar
    16     8    11    1
    17    11    12   ar
    18    12    13   ar
    19    13    14   ar
    20    14    15   ar
    21    15    16   ar
    22    16    17    1
    23     8     9   ar
    24     9    10   ar
    25    24    25   ar
    26    25    20   ar
    27    10     5   ar
    28    16    11   ar
    29     1     4    1
@<TRIPOS>MOLECULE
*****
 27 29 0 0 0
SMALL
GASTEIGER

@<TRIPOS>ATOM
      1 N          63.0862   88.1260   11.4288 N.am    1  UNL1       -0.2987
      2 C          62.9503   89.3897   12.2253 C.2     1  UNL1        0.2460
      3 O          62.0510   89.4268   13.4254 O.2     1  UNL1       -0.2701
      4 H          63.6764   88.1017   10.6412 H       1  UNL1        0.1500
      5 C          63.7135   90.6164   11.8219 C.ar    1  UNL1        0.0534
      6 C          64.7087   91.2245   12.7653 C.ar    1  UNL1        0.0045
      7 C          65.4720   92.4512   12.3619 C.ar    1  UNL1        0.0002
      8 C          65.2401   93.0697   11.0151 C.ar    1  UNL1        0.0023
      9 C          64.2450   92.4616   10.0718 C.ar    1  UNL1        0.0002
     10 C          63.4817   91.2349   10.4752 C.ar    1  UNL1        0.0045
     11 C          66.0033   94.2964   10.6117 C.ar    1  UNL1        0.0306
     12 C          65.6612   95.6255   11.2172 C.ar    1  UNL1        0.0229
     13 C          66.4245   96.8521   10.8138 C.ar    1  UNL1        0.0990
     14 N          67.5299   96.7497    9.8049 N.ar    1  UNL1       -0.2400
     15 C          67.8719   95.4206    9.1995 C.ar    1  UNL1        0.1284
     16 C          67.1087   94.1940    9.6029 C.ar    1  UNL1        0.1591
     17 F          67.4508   92.8649    8.9975 F       1  UNL1       -0.2025
     18 C          62.3230   86.8994   11.8322 C.3     1  UNL1        0.0945
     19 C          60.8824   86.7501   11.4416 C.3     1  UNL1        0.0262
     20 C          63.5106   83.3064   13.0279 C.ar    1  UNL1        0.1385
     21 C          64.3548   83.6671   14.2141 C.ar    1  UNL1        0.0369
     22 C          64.5218   85.1052   14.6063 C.ar    1  UNL1        0.0028
     23 C          63.8445   86.1827   13.8124 C.ar    1  UNL1       -0.0025
     24 C          63.0003   85.8219   12.6262 C.ar    1  UNL1       -0.0015
     25 C          62.8333   84.3838   12.2340 C.ar    1  UNL1        0.0342
     26 C          62.5581   80.9382   13.5119 C.3     1  UNL1        0.2525
     27 O          63.3436   81.8682   12.6357 O.3     1  UNL1       -0.4714
@<TRIPOS>BOND
     1    26    27    1
     2    27    20    1
     3    20    21   ar
     4    21    22   ar
     5    22    23   ar
     6    23    24   ar
     7    24    18    1
     8    18    19    1
     9    18     1    1
    10     1     2   am
    11     2     3    2
    12     2     5    1
    13     5     6   ar
    14     6     7   ar
    15     7     8   ar
    16     8    11    1
    17    11    12   ar
    18    12    13   ar
    19    13    14   ar
    20    14    15   ar
    21    15    16   ar
    22    16    17    1
    23     8     9   ar
    24     9    10   ar
    25    24    25   ar
    26    25    20   ar
    27    10     5   ar
    28    16    11   ar
    29     1     4    1
