@<TRIPOS>MOLECULE
*****
 34 37 0 0 0
SMALL
GASTEIGER

@<TRIPOS>ATOM
      1 N          61.6487   85.9431   11.9348 N.pl3   1  UNL1       -0.3148
      2 H          60.8496   85.7126   12.4616 H       1  UNL1        0.1520
      3 C          61.8270   87.3384   11.4141 C.2     1  UNL1        0.0450
      4 C          62.7771   88.2778   12.0960 C.2     1  UNL1        0.0577
      5 C          62.9553   89.6731   11.5753 C.2     1  UNL1        0.1962
      6 N          62.1835   90.1292   10.3726 N.2     1  UNL1       -0.0378
      7 C          61.2334   89.1899    9.6907 C.2     1  UNL1        0.3604
      8 N          60.3430   89.3558    8.4951 N.2     1  UNL1       -0.0343
      9 C          59.6145   88.0629    8.2768 C.2     1  UNL1        0.2321
     10 C          60.0546   87.0979    9.3376 C.2     1  UNL1        0.0421
     11 C          61.0551   87.7945   10.2115 C.3     1  UNL1        0.1734
     12 C          63.9054   90.6125   12.2572 C.ar    1  UNL1        0.0706
     13 C          64.3055   90.3707   13.6826 C.ar    1  UNL1        0.0083
     14 C          65.2556   91.3101   14.3645 C.ar    1  UNL1        0.0299
     15 C          65.8056   92.4911   13.6211 C.ar    1  UNL1        0.1424
     16 F          66.7557   93.4304   14.3029 F       1  UNL1       -0.2041
     17 C          65.4055   92.7328   12.1957 C.ar    1  UNL1        0.0594
     18 C          64.4555   91.7935   11.5138 C.ar    1  UNL1        0.1459
     19 F          64.0553   92.0351   10.0885 F       1  UNL1       -0.2040
     20 C          63.4201   84.2441   12.7866 C.ar    1  UNL1        0.0858
     21 C          64.4594   83.1999   12.5047 C.ar    1  UNL1        0.1046
     22 N          64.7666   82.8104   11.0889 N.ar    1  UNL1       -0.2421
     23 C          64.0345   83.4651    9.9553 C.ar    1  UNL1        0.1002
     24 C          62.9951   84.5094   10.2372 C.ar    1  UNL1        0.0354
     25 C          62.6880   84.8988   11.6528 C.ar    1  UNL1        0.0556
     26 N          64.1803   85.2458   15.0600 N.am    1  UNL1       -0.2985
     27 C          63.1130   84.6335   14.2022 C.2     1  UNL1        0.2486
     28 O          61.7385   84.4106   14.7600 O.2     1  UNL1       -0.2700
     29 H          65.0824   85.3921   14.6939 H       1  UNL1        0.1498
     30 C          63.8732   85.6352   16.4756 C.3     1  UNL1        0.1189
     31 C          63.1919   88.1330   16.6934 C.3     1  UNL1        0.0335
     32 C          62.8326   86.6781   16.7578 C.3     1  UNL1        0.1301
     33 O          61.4326   86.2660   17.1044 O.3     1  UNL1       -0.3827
     34 H          61.3706   85.2980   17.1025 H       1  UNL1        0.2104
@<TRIPOS>BOND
     1    32    31    1
     2    32    33    1
     3    32    30    1
     4    30    26    1
     5    26    27   am
     6    27    28    2
     7    27    20    1
     8    20    21   ar
     9    21    22   ar
    10    22    23   ar
    11    23    24   ar
    12    24    25   ar
    13    25     1    1
    14     1     3    1
    15     3     4    2
    16     4     5    1
    17     5    12    1
    18    12    13   ar
    19    13    14   ar
    20    14    15   ar
    21    15    16    1
    22    15    17   ar
    23    17    18   ar
    24    18    19    1
    25     5     6    2
    26     6     7    1
    27     7     8    2
    28     8     9    1
    29     9    10    2
    30    10    11    1
    31    25    20   ar
    32    11     3    1
    33    18    12   ar
    34    11     7    1
    35    33    34    1
    36    26    29    1
    37     1     2    1
@<TRIPOS>MOLECULE
*****
 34 37 0 0 0
SMALL
GASTEIGER

@<TRIPOS>ATOM
      1 N          61.9906   89.8459   12.3783 N.pl3   1  UNL1       -0.3148
      2 H          61.3056   90.1053   13.0361 H       1  UNL1        0.1520
      3 C          61.8192   88.5931   11.5714 C.2     1  UNL1        0.0450
      4 C          62.3864   87.2968   12.0693 C.2     1  UNL1        0.0577
      5 C          62.2151   86.0440   11.2625 C.2     1  UNL1        0.1962
      6 N          61.4764   86.0874    9.9576 N.2     1  UNL1       -0.0378
      7 C          60.9092   87.3837    9.4597 C.2     1  UNL1        0.3604
      8 N          60.1392   87.7321    8.2205 N.2     1  UNL1       -0.0343
      9 C          59.8347   89.2003    8.2615 C.2     1  UNL1        0.2321
     10 C          60.4165   89.7593    9.5260 C.2     1  UNL1        0.0421
     11 C          61.0806   88.6365   10.2666 C.3     1  UNL1        0.1734
     12 C          62.7823   84.7477   11.7605 C.ar    1  UNL1        0.0706
     13 C          62.5972   84.3499   13.1949 C.ar    1  UNL1        0.0083
     14 C          63.1644   83.0536   13.6928 C.ar    1  UNL1        0.0299
     15 C          63.9168   82.1552   12.7564 C.ar    1  UNL1        0.1424
     16 F          64.4840   80.8590   13.2543 F       1  UNL1       -0.2041
     17 C          64.1019   82.5531   11.3220 C.ar    1  UNL1        0.0594
     18 C          63.5346   83.8493   10.8241 C.ar    1  UNL1        0.1459
     19 F          63.7197   84.2473    9.3897 F       1  UNL1       -0.2040
     20 C          64.0545   91.0808   13.3607 C.ar    1  UNL1        0.0858
     21 C          65.2696   91.9384   13.1653 C.ar    1  UNL1        0.1046
     22 N          65.6357   92.4187   11.7921 N.ar    1  UNL1       -0.2421
     23 C          64.7868   92.0414   10.6145 C.ar    1  UNL1        0.1002
     24 C          63.5717   91.1838   10.8098 C.ar    1  UNL1        0.0354
     25 C          63.2056   90.7035   12.1829 C.ar    1  UNL1        0.0556
     26 N          63.5641   89.1308   15.0058 N.am    1  UNL1       -0.2985
     27 C          63.6884   90.6006   14.7337 C.2     1  UNL1        0.2486
     28 O          63.4467   91.5903   15.8347 O.2     1  UNL1       -0.2700
     29 H          63.7228   88.4813   14.2832 H       1  UNL1        0.1498
     30 C          63.1980   88.6505   16.3789 C.3     1  UNL1        0.1189
     31 C          62.6751   86.6877   17.9988 C.3     1  UNL1        0.0335
     32 C          63.2122   87.1829   16.6888 C.3     1  UNL1        0.1301
     33 O          63.7635   86.2106   15.6885 O.3     1  UNL1       -0.3827
     34 H          64.0664   86.6919   14.9027 H       1  UNL1        0.2104
@<TRIPOS>BOND
     1    32    31    1
     2    32    33    1
     3    32    30    1
     4    30    26    1
     5    26    27   am
     6    27    28    2
     7    27    20    1
     8    20    21   ar
     9    21    22   ar
    10    22    23   ar
    11    23    24   ar
    12    24    25   ar
    13    25     1    1
    14     1     3    1
    15     3     4    2
    16     4     5    1
    17     5    12    1
    18    12    13   ar
    19    13    14   ar
    20    14    15   ar
    21    15    16    1
    22    15    17   ar
    23    17    18   ar
    24    18    19    1
    25     5     6    2
    26     6     7    1
    27     7     8    2
    28     8     9    1
    29     9    10    2
    30    10    11    1
    31    25    20   ar
    32    11     3    1
    33    18    12   ar
    34    11     7    1
    35    33    34    1
    36    26    29    1
    37     1     2    1
@<TRIPOS>MOLECULE
*****
 34 37 0 0 0
SMALL
GASTEIGER

@<TRIPOS>ATOM
      1 N          64.7478   87.6683   14.6749 N.pl3   1  UNL1       -0.3148
      2 H          65.6968   87.4066   14.6667 H       1  UNL1        0.1520
      3 C          64.2203   88.6095   13.6329 C.2     1  UNL1        0.0450
      4 C          63.3003   88.1034   12.5618 C.2     1  UNL1        0.0577
      5 C          62.7728   89.0445   11.5198 C.2     1  UNL1        0.1962
      6 N          63.1652   90.4920   11.5489 N.2     1  UNL1       -0.0378
      7 C          64.0852   90.9982   12.6200 C.2     1  UNL1        0.3604
      8 N          64.6429   92.3618   12.9022 N.2     1  UNL1       -0.0343
      9 C          65.5150   92.2633   14.1185 C.2     1  UNL1        0.2321
     10 C          65.4964   90.8389   14.5882 C.2     1  UNL1        0.0421
     11 C          64.6127   90.0570   13.6621 C.3     1  UNL1        0.1734
     12 C          61.8527   88.5383   10.4487 C.ar    1  UNL1        0.0706
     13 C          62.0554   87.1687    9.8715 C.ar    1  UNL1        0.0083
     14 C          61.1355   86.6624    8.8004 C.ar    1  UNL1        0.0299
     15 C          60.0127   87.5258    8.3064 C.ar    1  UNL1        0.1424
     16 F          59.0927   87.0197    7.2353 F       1  UNL1       -0.2041
     17 C          59.8100   88.8954    8.8835 C.ar    1  UNL1        0.0594
     18 C          60.7300   89.4017    9.9547 C.ar    1  UNL1        0.1459
     19 F          60.5273   90.7713   10.5319 F       1  UNL1       -0.2040
     20 C          63.4988   85.6629   15.7558 C.ar    1  UNL1        0.0858
     21 C          62.5804   85.1204   16.8104 C.ar    1  UNL1        0.1046
     22 N          61.9925   86.0409   17.8388 N.ar    1  UNL1       -0.2421
     23 C          62.3231   87.5037   17.8124 C.ar    1  UNL1        0.1002
     24 C          63.2416   88.0462   16.7578 C.ar    1  UNL1        0.0354
     25 C          63.8294   87.1258   15.7295 C.ar    1  UNL1        0.0556
     26 N          63.2732   83.6037   14.1879 N.am    1  UNL1       -0.2985
     27 C          64.0866   84.7425   14.7276 C.2     1  UNL1        0.2486
     28 O          65.4879   84.9610   14.2390 O.2     1  UNL1       -0.2700
     29 H          62.3535   83.4603   14.5086 H       1  UNL1        0.1498
     30 C          63.8610   82.6833   13.1596 C.3     1  UNL1        0.1189
     31 C          62.8969   84.0485   11.1704 C.3     1  UNL1        0.0335
     32 C          63.9271   83.1085   11.7227 C.3     1  UNL1        0.1301
     33 O          65.0236   82.5936   10.8380 O.3     1  UNL1       -0.3827
     34 H          65.5993   82.0021   11.3475 H       1  UNL1        0.2104
@<TRIPOS>BOND
     1    32    31    1
     2    32    33    1
     3    32    30    1
     4    30    26    1
     5    26    27   am
     6    27    28    2
     7    27    20    1
     8    20    21   ar
     9    21    22   ar
    10    22    23   ar
    11    23    24   ar
    12    24    25   ar
    13    25     1    1
    14     1     3    1
    15     3     4    2
    16     4     5    1
    17     5    12    1
    18    12    13   ar
    19    13    14   ar
    20    14    15   ar
    21    15    16    1
    22    15    17   ar
    23    17    18   ar
    24    18    19    1
    25     5     6    2
    26     6     7    1
    27     7     8    2
    28     8     9    1
    29     9    10    2
    30    10    11    1
    31    25    20   ar
    32    11     3    1
    33    18    12   ar
    34    11     7    1
    35    33    34    1
    36    26    29    1
    37     1     2    1
@<TRIPOS>MOLECULE
*****
 34 37 0 0 0
SMALL
GASTEIGER

@<TRIPOS>ATOM
      1 N          64.2423   88.4154   13.9938 N.pl3   1  UNL1       -0.3148
      2 H          64.9734   88.8599   14.4807 H       1  UNL1        0.1520
      3 C          63.7480   87.0730   14.4451 C.2     1  UNL1        0.0450
      4 C          63.7210   85.9217   13.4840 C.2     1  UNL1        0.0577
      5 C          63.2268   84.5794   13.9353 C.2     1  UNL1        0.1962
      6 N          62.7594   84.3882   15.3478 N.2     1  UNL1       -0.0378
      7 C          62.7863   85.5395   16.3089 C.2     1  UNL1        0.3604
      8 N          62.3918   85.6519   17.7517 N.2     1  UNL1       -0.0343
      9 C          62.6422   87.0637   18.1921 C.2     1  UNL1        0.2321
     10 C          63.1915   87.8239   17.0215 C.2     1  UNL1        0.0421
     11 C          63.2806   86.8819   15.8576 C.3     1  UNL1        0.1734
     12 C          63.1998   83.4280   12.9741 C.ar    1  UNL1        0.0706
     13 C          63.9089   83.5342   11.6565 C.ar    1  UNL1        0.0083
     14 C          63.8820   82.3830   10.6954 C.ar    1  UNL1        0.0299
     15 C          63.1459   81.1255   11.0518 C.ar    1  UNL1        0.1424
     16 F          63.1190   79.9742   10.0907 F       1  UNL1       -0.2041
     17 C          62.4368   81.0193   12.3693 C.ar    1  UNL1        0.0594
     18 C          62.4638   82.1706   13.3305 C.ar    1  UNL1        0.1459
     19 F          61.7547   82.0645   14.6480 F       1  UNL1       -0.2040
     20 C          63.8206   90.5500   12.5742 C.ar    1  UNL1        0.0858
     21 C          63.2009   91.2152   11.3811 C.ar    1  UNL1        0.1046
     22 N          62.3831   90.4107   10.4145 N.ar    1  UNL1       -0.2421
     23 C          62.1850   88.9413   10.6410 C.ar    1  UNL1        0.1002
     24 C          62.8048   88.2761   11.8342 C.ar    1  UNL1        0.0354
     25 C          63.6225   89.0805   12.8007 C.ar    1  UNL1        0.0556
     26 N          65.8049   92.1586   13.0484 N.am    1  UNL1       -0.2985
     27 C          64.6384   91.3544   13.5407 C.2     1  UNL1        0.2486
     28 O          64.2895   91.3546   14.9996 O.2     1  UNL1       -0.2700
     29 H          66.0338   92.1585   12.0909 H       1  UNL1        0.1498
     30 C          66.6227   92.9630   14.0149 C.3     1  UNL1        0.1189
     31 C          68.0965   92.3509   16.0652 C.3     1  UNL1        0.0335
     32 C          67.8903   92.3940   14.5800 C.3     1  UNL1        0.1301
     33 O          68.9518   91.8680   13.6599 O.3     1  UNL1       -0.3827
     34 H          68.6618   91.9701   12.7399 H       1  UNL1        0.2104
@<TRIPOS>BOND
     1    32    31    1
     2    32    33    1
     3    32    30    1
     4    30    26    1
     5    26    27   am
     6    27    28    2
     7    27    20    1
     8    20    21   ar
     9    21    22   ar
    10    22    23   ar
    11    23    24   ar
    12    24    25   ar
    13    25     1    1
    14     1     3    1
    15     3     4    2
    16     4     5    1
    17     5    12    1
    18    12    13   ar
    19    13    14   ar
    20    14    15   ar
    21    15    16    1
    22    15    17   ar
    23    17    18   ar
    24    18    19    1
    25     5     6    2
    26     6     7    1
    27     7     8    2
    28     8     9    1
    29     9    10    2
    30    10    11    1
    31    25    20   ar
    32    11     3    1
    33    18    12   ar
    34    11     7    1
    35    33    34    1
    36    26    29    1
    37     1     2    1
@<TRIPOS>MOLECULE
*****
 34 37 0 0 0
SMALL
GASTEIGER

@<TRIPOS>ATOM
      1 N          64.2016   89.7752   12.7014 N.pl3   1  UNL1       -0.3148
      2 H          64.9003   90.0837   12.0803 H       1  UNL1        0.1520
      3 C          63.2070   88.7433   12.2586 C.2     1  UNL1        0.0450
      4 C          63.4509   87.2925   12.5512 C.2     1  UNL1        0.0577
      5 C          62.4564   86.2606   12.1084 C.2     1  UNL1        0.1962
      6 N          61.2179   86.6795   11.3731 N.2     1  UNL1       -0.0378
      7 C          60.9740   88.1303   11.0805 C.2     1  UNL1        0.3604
      8 N          59.8527   88.8380   10.3793 N.2     1  UNL1       -0.0343
      9 C          60.1542   90.3074   10.3886 C.2     1  UNL1        0.2321
     10 C          61.4619   90.5077   11.0957 C.2     1  UNL1        0.0421
     11 C          61.9685   89.1622   11.5233 C.3     1  UNL1        0.1734
     12 C          62.7004   84.8097   12.4010 C.ar    1  UNL1        0.0706
     13 C          62.5570   84.2927   13.8018 C.ar    1  UNL1        0.0083
     14 C          62.8009   82.8418   14.0944 C.ar    1  UNL1        0.0299
     15 C          63.1882   81.9081   12.9862 C.ar    1  UNL1        0.1424
     16 F          63.4321   80.4573   13.2787 F       1  UNL1       -0.2041
     17 C          63.3315   82.4251   11.5854 C.ar    1  UNL1        0.0594
     18 C          63.0876   83.8759   11.2928 C.ar    1  UNL1        0.1459
     19 F          63.2309   84.3930    9.8921 F       1  UNL1       -0.2040
     20 C          65.0042   91.4944   14.4762 C.ar    1  UNL1        0.0858
     21 C          64.9341   92.0562   15.8652 C.ar    1  UNL1        0.1046
     22 N          63.9912   91.4606   16.8685 N.ar    1  UNL1       -0.2421
     23 C          63.1186   90.3032   16.4827 C.ar    1  UNL1        0.1002
     24 C          63.1887   89.7414   15.0936 C.ar    1  UNL1        0.0354
     25 C          64.1314   90.3370   14.0904 C.ar    1  UNL1        0.0556
     26 N          65.4389   93.0658   12.4535 N.am    1  UNL1       -0.2985
     27 C          65.9470   92.0900   13.4730 C.2     1  UNL1        0.2486
     28 O          67.3979   91.7097   13.4895 O.2     1  UNL1       -0.2700
     29 H          64.4866   93.3154   12.4427 H       1  UNL1        0.1498
     30 C          66.3817   93.6614   11.4503 C.3     1  UNL1        0.1189
     31 C          66.4691   95.4900    9.6067 C.3     1  UNL1        0.0335
     32 C          66.2260   95.0938   11.0328 C.3     1  UNL1        0.1301
     33 O          65.8273   96.1298   12.0416 O.3     1  UNL1       -0.3827
     34 H          65.7106   95.7095   12.9080 H       1  UNL1        0.2104
@<TRIPOS>BOND
     1    32    31    1
     2    32    33    1
     3    32    30    1
     4    30    26    1
     5    26    27   am
     6    27    28    2
     7    27    20    1
     8    20    21   ar
     9    21    22   ar
    10    22    23   ar
    11    23    24   ar
    12    24    25   ar
    13    25     1    1
    14     1     3    1
    15     3     4    2
    16     4     5    1
    17     5    12    1
    18    12    13   ar
    19    13    14   ar
    20    14    15   ar
    21    15    16    1
    22    15    17   ar
    23    17    18   ar
    24    18    19    1
    25     5     6    2
    26     6     7    1
    27     7     8    2
    28     8     9    1
    29     9    10    2
    30    10    11    1
    31    25    20   ar
    32    11     3    1
    33    18    12   ar
    34    11     7    1
    35    33    34    1
    36    26    29    1
    37     1     2    1
@<TRIPOS>MOLECULE
*****
 34 37 0 0 0
SMALL
GASTEIGER

@<TRIPOS>ATOM
      1 N          63.4605   88.9329   12.5873 N.pl3   1  UNL1       -0.3148
      2 H          63.7419   88.1008   13.0321 H       1  UNL1        0.1520
      3 C          64.1114   90.2346   12.9506 C.2     1  UNL1        0.0450
      4 C          64.7578   91.0723   11.8874 C.2     1  UNL1        0.0577
      5 C          65.4086   92.3740   12.2506 C.2     1  UNL1        0.1962
      6 N          65.4131   92.8380   13.6771 N.2     1  UNL1       -0.0378
      7 C          64.7667   92.0002   14.7403 C.2     1  UNL1        0.3604
      8 N          64.6154   92.1972   16.2196 N.2     1  UNL1       -0.0343
      9 C          63.8710   91.0173   16.7705 C.2     1  UNL1        0.2321
     10 C          63.5623   90.0910   15.6318 C.2     1  UNL1        0.0421
     11 C          64.1159   90.6985   14.3770 C.3     1  UNL1        0.1734
     12 C          66.0550   93.2118   11.1874 C.ar    1  UNL1        0.0706
     13 C          65.4579   94.5347   10.8087 C.ar    1  UNL1        0.0083
     14 C          66.1043   95.3725    9.7455 C.ar    1  UNL1        0.0299
     15 C          67.3477   94.8873    9.0611 C.ar    1  UNL1        0.1424
     16 F          67.9941   95.7250    7.9979 F       1  UNL1       -0.2041
     17 C          67.9448   93.5644    9.4398 C.ar    1  UNL1        0.0594
     18 C          67.2984   92.7266   10.5029 C.ar    1  UNL1        0.1459
     19 F          67.8955   91.4037   10.8817 F       1  UNL1       -0.2040
     20 C          61.8191   87.5846   11.0914 C.ar    1  UNL1        0.0858
     21 C          60.7396   87.5505   10.0505 C.ar    1  UNL1        0.1046
     22 N          60.2221   88.8308    9.4645 N.ar    1  UNL1       -0.2421
     23 C          60.7840   90.1449    9.9195 C.ar    1  UNL1        0.1002
     24 C          61.8636   90.1790   10.9605 C.ar    1  UNL1        0.0354
     25 C          62.3811   88.8988   11.5464 C.ar    1  UNL1        0.0556
     26 N          62.0114   84.9946   11.0227 N.am    1  UNL1       -0.2985
     27 C          62.3366   86.3044   11.6773 C.2     1  UNL1        0.2486
     28 O          63.1794   86.3341   12.9179 O.2     1  UNL1       -0.2700
     29 H          61.4583   84.9751   10.2085 H       1  UNL1        0.1498
     30 C          62.5289   83.7144   11.6086 C.3     1  UNL1        0.1189
     31 C          64.4867   82.6772   10.2516 C.3     1  UNL1        0.0335
     32 C          63.9828   83.3665   11.4848 C.3     1  UNL1        0.1301
     33 O          64.9328   83.7081   12.5942 O.3     1  UNL1       -0.3827
     34 H          64.4484   84.1468   13.3110 H       1  UNL1        0.2104
@<TRIPOS>BOND
     1    32    31    1
     2    32    33    1
     3    32    30    1
     4    30    26    1
     5    26    27   am
     6    27    28    2
     7    27    20    1
     8    20    21   ar
     9    21    22   ar
    10    22    23   ar
    11    23    24   ar
    12    24    25   ar
    13    25     1    1
    14     1     3    1
    15     3     4    2
    16     4     5    1
    17     5    12    1
    18    12    13   ar
    19    13    14   ar
    20    14    15   ar
    21    15    16    1
    22    15    17   ar
    23    17    18   ar
    24    18    19    1
    25     5     6    2
    26     6     7    1
    27     7     8    2
    28     8     9    1
    29     9    10    2
    30    10    11    1
    31    25    20   ar
    32    11     3    1
    33    18    12   ar
    34    11     7    1
    35    33    34    1
    36    26    29    1
    37     1     2    1
@<TRIPOS>MOLECULE
*****
 34 37 0 0 0
SMALL
GASTEIGER

@<TRIPOS>ATOM
      1 N          63.8188   87.1578   13.8487 N.pl3   1  UNL1       -0.3148
      2 H          63.9954   86.4435   13.1946 H       1  UNL1        0.1520
      3 C          64.0052   88.5943   13.4592 C.2     1  UNL1        0.0450
      4 C          65.0717   89.4177   14.1184 C.2     1  UNL1        0.0577
      5 C          65.2581   90.8542   13.7289 C.2     1  UNL1        0.1962
      6 N          64.3781   91.4673   12.6802 N.2     1  UNL1       -0.0378
      7 C          63.3117   90.6438   12.0210 C.2     1  UNL1        0.3604
      8 N          62.3005   90.9722   10.9629 N.2     1  UNL1       -0.0343
      9 C          61.4891   89.7387   10.6984 C.2     1  UNL1        0.2321
     10 C          61.9988   88.6479   11.5931 C.2     1  UNL1        0.0421
     11 C          63.1252   89.2073   12.4105 C.3     1  UNL1        0.1734
     12 C          66.3247   91.6777   14.3882 C.ar    1  UNL1        0.0706
     13 C          67.6554   91.8558   13.7193 C.ar    1  UNL1        0.0083
     14 C          68.7219   92.6793   14.3785 C.ar    1  UNL1        0.0299
     15 C          68.4577   93.3245   15.7065 C.ar    1  UNL1        0.1424
     16 F          69.5241   94.1480   16.3658 F       1  UNL1       -0.2041
     17 C          67.1269   93.1463   16.3754 C.ar    1  UNL1        0.0594
     18 C          66.0604   92.3229   15.7163 C.ar    1  UNL1        0.1459
     19 F          64.7296   92.1447   16.3851 F       1  UNL1       -0.2040
     20 C          63.0477   85.3855   15.5849 C.ar    1  UNL1        0.0858
     21 C          62.5922   85.0372   16.9710 C.ar    1  UNL1        0.1046
     22 N          62.4522   86.1131   18.0069 N.ar    1  UNL1       -0.2421
     23 C          62.7677   87.5370   17.6568 C.ar    1  UNL1        0.1002
     24 C          63.2233   87.8853   16.2706 C.ar    1  UNL1        0.0354
     25 C          63.3633   86.8095   15.2348 C.ar    1  UNL1        0.0556
     26 N          63.6468   82.9389   14.9487 N.am    1  UNL1       -0.2985
     27 C          63.1877   84.3097   14.5490 C.2     1  UNL1        0.2486
     28 O          62.8685   84.6049   13.1133 O.2     1  UNL1       -0.2700
     29 H          63.8563   82.7452   15.8909 H       1  UNL1        0.1498
     30 C          63.7868   81.8631   13.9128 C.3     1  UNL1        0.1189
     31 C          61.2881   81.2111   14.1984 C.3     1  UNL1        0.0335
     32 C          62.5741   81.1228   13.4315 C.3     1  UNL1        0.1301
     33 O          62.6476   80.2944   12.1832 O.3     1  UNL1       -0.3827
     34 H          63.5430   80.3453   11.8136 H       1  UNL1        0.2104
@<TRIPOS>BOND
     1    32    31    1
     2    32    33    1
     3    32    30    1
     4    30    26    1
     5    26    27   am
     6    27    28    2
     7    27    20    1
     8    20    21   ar
     9    21    22   ar
    10    22    23   ar
    11    23    24   ar
    12    24    25   ar
    13    25     1    1
    14     1     3    1
    15     3     4    2
    16     4     5    1
    17     5    12    1
    18    12    13   ar
    19    13    14   ar
    20    14    15   ar
    21    15    16    1
    22    15    17   ar
    23    17    18   ar
    24    18    19    1
    25     5     6    2
    26     6     7    1
    27     7     8    2
    28     8     9    1
    29     9    10    2
    30    10    11    1
    31    25    20   ar
    32    11     3    1
    33    18    12   ar
    34    11     7    1
    35    33    34    1
    36    26    29    1
    37     1     2    1
@<TRIPOS>MOLECULE
*****
 34 37 0 0 0
SMALL
GASTEIGER

@<TRIPOS>ATOM
      1 N          62.7008   87.3947   10.2187 N.pl3   1  UNL1       -0.3148
      2 H          62.9756   88.3319   10.0943 H       1  UNL1        0.1520
      3 C          62.9415   86.7106   11.5318 C.2     1  UNL1        0.0450
      4 C          62.7098   85.2343   11.6618 C.2     1  UNL1        0.0577
      5 C          62.9504   84.5502   12.9748 C.2     1  UNL1        0.1962
      6 N          63.4228   85.3423   14.1578 N.2     1  UNL1       -0.0378
      7 C          63.6545   86.8186   14.0278 C.2     1  UNL1        0.3604
      8 N          64.1154   87.8527   15.0117 N.2     1  UNL1       -0.0343
      9 C          64.1597   89.1760   14.3067 C.2     1  UNL1        0.2321
     10 C          63.7260   88.9597   12.8872 C.2     1  UNL1        0.0421
     11 C          63.4138   87.5027   12.7147 C.3     1  UNL1        0.1734
     12 C          62.7187   83.0738   13.1048 C.ar    1  UNL1        0.0706
     13 C          61.9090   82.5397   14.2490 C.ar    1  UNL1        0.0083
     14 C          61.6773   81.0634   14.3790 C.ar    1  UNL1        0.0299
     15 C          62.2553   80.1213   13.3650 C.ar    1  UNL1        0.1424
     16 F          62.0237   78.6450   13.4950 F       1  UNL1       -0.2041
     17 C          63.0650   80.6555   12.2209 C.ar    1  UNL1        0.0594
     18 C          63.2967   82.1317   12.0908 C.ar    1  UNL1        0.1459
     19 F          64.1065   82.6660   10.9467 F       1  UNL1       -0.2040
     20 C          60.6401   86.9970    8.6874 C.ar    1  UNL1        0.0858
     21 C          59.9808   86.2533    7.5639 C.ar    1  UNL1        0.1046
     22 N          60.7229   85.1636    6.8483 N.ar    1  UNL1       -0.2421
     23 C          62.1242   84.8177    7.2563 C.ar    1  UNL1        0.1002
     24 C          62.7836   85.5614    8.3798 C.ar    1  UNL1        0.0354
     25 C          62.0415   86.6510    9.0953 C.ar    1  UNL1        0.0556
     26 N          59.6836   87.9999   10.8849 N.am    1  UNL1       -0.2985
     27 C          59.8980   88.0866    9.4029 C.2     1  UNL1        0.2486
     28 O          59.3703   89.2631    8.6362 O.2     1  UNL1       -0.2700
     29 H          60.0299   87.2278   11.3880 H       1  UNL1        0.1498
     30 C          58.9415   89.0895   11.6004 C.3     1  UNL1        0.1189
     31 C          60.9432   90.7391   11.4500 C.3     1  UNL1        0.0335
     32 C          59.4693   90.4935   11.5823 C.3     1  UNL1        0.1301
     33 O          58.5233   91.6519   11.6965 O.3     1  UNL1       -0.3827
     34 H          57.6148   91.3210   11.7740 H       1  UNL1        0.2104
@<TRIPOS>BOND
     1    32    31    1
     2    32    33    1
     3    32    30    1
     4    30    26    1
     5    26    27   am
     6    27    28    2
     7    27    20    1
     8    20    21   ar
     9    21    22   ar
    10    22    23   ar
    11    23    24   ar
    12    24    25   ar
    13    25     1    1
    14     1     3    1
    15     3     4    2
    16     4     5    1
    17     5    12    1
    18    12    13   ar
    19    13    14   ar
    20    14    15   ar
    21    15    16    1
    22    15    17   ar
    23    17    18   ar
    24    18    19    1
    25     5     6    2
    26     6     7    1
    27     7     8    2
    28     8     9    1
    29     9    10    2
    30    10    11    1
    31    25    20   ar
    32    11     3    1
    33    18    12   ar
    34    11     7    1
    35    33    34    1
    36    26    29    1
    37     1     2    1
@<TRIPOS>MOLECULE
*****
 34 37 0 0 0
SMALL
GASTEIGER

@<TRIPOS>ATOM
      1 N          63.4446   87.9077   12.6577 N.pl3   1  UNL1       -0.3148
      2 H          63.8934   87.0826   12.9526 H       1  UNL1        0.1520
      3 C          63.8123   89.2237   13.2763 C.2     1  UNL1        0.0450
      4 C          64.4012   90.3123   12.4289 C.2     1  UNL1        0.0577
      5 C          64.7689   91.6284   13.0474 C.2     1  UNL1        0.1962
      6 N          64.5477   91.8559   14.5135 N.2     1  UNL1       -0.0378
      7 C          63.9587   90.7674   15.3610 C.2     1  UNL1        0.3604
      8 N          63.6275   90.7013   16.8224 N.2     1  UNL1       -0.0343
      9 C          63.0551   89.3443   17.1070 C.2     1  UNL1        0.2321
     10 C          63.0325   88.5718   15.8215 C.2     1  UNL1        0.0421
     11 C          63.5910   89.4513   14.7423 C.3     1  UNL1        0.1734
     12 C          65.3579   92.7170   12.2000 C.ar    1  UNL1        0.0706
     13 C          65.2274   92.6586   10.7068 C.ar    1  UNL1        0.0083
     14 C          65.8163   93.7472    9.8593 C.ar    1  UNL1        0.0299
     15 C          66.5357   94.8941   10.5051 C.ar    1  UNL1        0.1424
     16 F          67.1247   95.9827    9.6577 F       1  UNL1       -0.2041
     17 C          66.6662   94.9525   11.9983 C.ar    1  UNL1        0.0594
     18 C          66.0773   93.8639   12.8457 C.ar    1  UNL1        0.1459
     19 F          66.2077   93.9222   14.3389 F       1  UNL1       -0.2040
     20 C          61.9529   86.5230   11.0429 C.ar    1  UNL1        0.0858
     21 C          60.9013   86.4640    9.9749 C.ar    1  UNL1        0.1046
     22 N          60.2899   87.7307    9.4536 N.ar    1  UNL1       -0.2421
     23 C          60.7300   89.0563   10.0002 C.ar    1  UNL1        0.1002
     24 C          61.7816   89.1153   11.0683 C.ar    1  UNL1        0.0354
     25 C          62.3930   87.8487   11.5896 C.ar    1  UNL1        0.0556
     26 N          62.4056   84.8862   13.0091 N.am    1  UNL1       -0.2985
     27 C          62.5642   85.2563   11.5642 C.2     1  UNL1        0.2486
     28 O          63.3344   84.3597   10.6405 O.2     1  UNL1       -0.2700
     29 H          61.9001   85.4746   13.6153 H       1  UNL1        0.1498
     30 C          63.0169   83.6195   13.5304 C.3     1  UNL1        0.1189
     31 C          61.6631   81.4916   14.1546 C.3     1  UNL1        0.0335
     32 C          62.4337   82.2918   13.1467 C.3     1  UNL1        0.1301
     33 O          62.6211   81.7644   11.7551 O.3     1  UNL1       -0.3827
     34 H          63.1380   82.3997   11.2354 H       1  UNL1        0.2104
@<TRIPOS>BOND
     1    32    31    1
     2    32    33    1
     3    32    30    1
     4    30    26    1
     5    26    27   am
     6    27    28    2
     7    27    20    1
     8    20    21   ar
     9    21    22   ar
    10    22    23   ar
    11    23    24   ar
    12    24    25   ar
    13    25     1    1
    14     1     3    1
    15     3     4    2
    16     4     5    1
    17     5    12    1
    18    12    13   ar
    19    13    14   ar
    20    14    15   ar
    21    15    16    1
    22    15    17   ar
    23    17    18   ar
    24    18    19    1
    25     5     6    2
    26     6     7    1
    27     7     8    2
    28     8     9    1
    29     9    10    2
    30    10    11    1
    31    25    20   ar
    32    11     3    1
    33    18    12   ar
    34    11     7    1
    35    33    34    1
    36    26    29    1
    37     1     2    1
