@<TRIPOS>MOLECULE
*****
 34 38 0 0 0
SMALL
GASTEIGER

@<TRIPOS>ATOM
      1 C          60.4268   85.7272    7.8115 C.3     1  UNL1        0.0339
      2 C          60.8963   86.6142    8.9263 C.3     1  UNL1        0.1351
      3 C          61.6799   86.0347   10.0665 C.3     1  UNL1        0.1231
      4 N          62.1495   86.9217   11.1813 N.am    1  UNL1       -0.2724
      5 C          62.9332   86.3421   12.3215 C.2     1  UNL1        0.2507
      6 O          63.4027   87.2291   13.4363 O.2     1  UNL1       -0.2698
      7 C          61.8354   88.3882   11.1559 C.3     1  UNL1        0.1096
      8 C          61.0518   88.9677   10.0158 C.3     1  UNL1        0.1621
      9 O          60.5822   88.0807    8.9010 O.3     1  UNL1       -0.3527
     10 C          63.2473   84.8756   12.3469 C.ar    1  UNL1        0.0738
     11 C          63.4842   84.1370   11.0630 C.ar    1  UNL1        0.0175
     12 C          63.7983   82.6704   11.0884 C.ar    1  UNL1        0.0579
     13 CL         64.0353   81.9318    9.8046 Cl      1  UNL1       -0.0822
     14 C          63.8755   81.9425   12.3977 C.ar    1  UNL1        0.0130
     15 C          63.6385   82.6811   13.6815 C.ar    1  UNL1        0.0219
     16 C          63.3244   84.1476   13.6562 C.ar    1  UNL1        0.1073
     17 N          63.0875   84.8862   14.9400 N.ar    1  UNL1       -0.1477
     18 N          64.1212   85.6290   15.7337 N.ar    1  UNL1       -0.1447
     19 C          63.4478   86.2135   16.9398 C.ar    1  UNL1        0.1446
     20 C          61.9979   85.8321   16.8917 C.ar    1  UNL1        0.1446
     21 N          61.7752   85.0118   15.6557 N.ar    1  UNL1       -0.1447
     22 C          62.3049   89.2752   12.2707 C.3     1  UNL1        0.0487
     23 C          63.3260   90.3406   12.0021 C.ar    1  UNL1       -0.0203
     24 C          63.3614   91.0263   10.6684 C.ar    1  UNL1       -0.0042
     25 C          64.3825   92.0918   10.3997 C.ar    1  UNL1       -0.0002
     26 C          65.3681   92.4716   11.4647 C.ar    1  UNL1        0.0030
     27 C          65.3327   91.7860   12.7984 C.ar    1  UNL1        0.0355
     28 C          64.3116   90.7205   13.0671 C.ar    1  UNL1       -0.0012
     29 C          66.3184   92.1659   13.8634 C.ar    1  UNL1        0.1622
     30 N          67.7720   92.3100   13.5229 N.ar    1  UNL1       -0.2250
     31 C          68.7577   92.6899   14.5879 C.ar    1  UNL1        0.1022
     32 C          68.2896   92.9256   15.9934 C.ar    1  UNL1        0.0414
     33 C          66.8359   92.7815   16.3339 C.ar    1  UNL1        0.1022
     34 N          65.8502   92.4016   15.2689 N.ar    1  UNL1       -0.2250
@<TRIPOS>BOND
     1     2     1    1
     2     2     3    1
     3     3     4    1
     4     4     5   am
     5     5     6    2
     6     5    10    1
     7    10    11   ar
     8    11    12   ar
     9    12    13    1
    10    12    14   ar
    11    14    15   ar
    12    15    16   ar
    13    16    17    1
    14    17    18   ar
    15    18    19   ar
    16    19    20   ar
    17    20    21   ar
    18     4     7    1
    19     7    22    1
    20    22    23    1
    21    23    24   ar
    22    24    25   ar
    23    25    26   ar
    24    26    27   ar
    25    27    29    1
    26    29    30   ar
    27    30    31   ar
    28    31    32   ar
    29    32    33   ar
    30    33    34   ar
    31    27    28   ar
    32     7     8    1
    33     8     9    1
    34     9     2    1
    35    16    10   ar
    36    21    17   ar
    37    28    23   ar
    38    34    29   ar
@<TRIPOS>MOLECULE
*****
 34 38 0 0 0
SMALL
GASTEIGER

@<TRIPOS>ATOM
      1 C          64.1348   84.0220   13.8012 C.3     1  UNL1        0.0339
      2 C          64.0813   85.5210   13.8108 C.3     1  UNL1        0.1351
      3 C          63.3978   86.2542   12.6949 C.3     1  UNL1        0.1231
      4 N          63.3443   87.7533   12.7045 N.am    1  UNL1       -0.2724
      5 C          62.6608   88.4865   11.5885 C.2     1  UNL1        0.2507
      6 O          62.6073   89.9855   11.5981 O.2     1  UNL1       -0.2698
      7 C          63.9742   88.5191   13.8299 C.3     1  UNL1        0.1096
      8 C          64.6576   87.7858   14.9458 C.3     1  UNL1        0.1621
      9 O          64.7112   86.2868   14.9362 O.3     1  UNL1       -0.3527
     10 C          62.0309   87.7207   10.4630 C.ar    1  UNL1        0.0738
     11 C          62.8386   86.7175    9.6940 C.ar    1  UNL1        0.0175
     12 C          62.2086   85.9517    8.5685 C.ar    1  UNL1        0.0579
     13 CL         63.0162   84.9485    7.7994 Cl      1  UNL1       -0.0822
     14 C          60.7711   86.1891    8.2120 C.ar    1  UNL1        0.0130
     15 C          59.9634   87.1922    8.9810 C.ar    1  UNL1        0.0219
     16 C          60.5933   87.9580   10.1065 C.ar    1  UNL1        0.1073
     17 N          59.7857   88.9612   10.8755 N.ar    1  UNL1       -0.1477
     18 N          59.0358   88.7002   12.1483 N.ar    1  UNL1       -0.1447
     19 C          58.3728   89.9792   12.5661 C.ar    1  UNL1        0.1446
     20 C          58.7128   91.0306   11.5517 C.ar    1  UNL1        0.1446
     21 N          59.5860   90.4014   10.5069 N.ar    1  UNL1       -0.1447
     22 C          63.9206   90.0181   13.8395 C.3     1  UNL1        0.0487
     23 C          65.1907   90.8143   13.7850 C.ar    1  UNL1       -0.0203
     24 C          66.1490   90.7778   14.9384 C.ar    1  UNL1       -0.0042
     25 C          67.4190   91.5740   14.8839 C.ar    1  UNL1       -0.0002
     26 C          67.7308   92.4067   13.6759 C.ar    1  UNL1        0.0030
     27 C          66.7726   92.4433   12.5224 C.ar    1  UNL1        0.0355
     28 C          65.5025   91.6470   12.5769 C.ar    1  UNL1       -0.0012
     29 C          67.0845   93.2760   11.3144 C.ar    1  UNL1        0.1622
     30 N          66.6564   94.7127   11.2630 N.ar    1  UNL1       -0.2250
     31 C          66.9682   95.5454   10.0549 C.ar    1  UNL1        0.1022
     32 C          67.7082   94.9415    8.8984 C.ar    1  UNL1        0.0414
     33 C          68.1363   93.5047    8.9498 C.ar    1  UNL1        0.1022
     34 N          67.8245   92.6720   10.1578 N.ar    1  UNL1       -0.2250
@<TRIPOS>BOND
     1     2     1    1
     2     2     3    1
     3     3     4    1
     4     4     5   am
     5     5     6    2
     6     5    10    1
     7    10    11   ar
     8    11    12   ar
     9    12    13    1
    10    12    14   ar
    11    14    15   ar
    12    15    16   ar
    13    16    17    1
    14    17    18   ar
    15    18    19   ar
    16    19    20   ar
    17    20    21   ar
    18     4     7    1
    19     7    22    1
    20    22    23    1
    21    23    24   ar
    22    24    25   ar
    23    25    26   ar
    24    26    27   ar
    25    27    29    1
    26    29    30   ar
    27    30    31   ar
    28    31    32   ar
    29    32    33   ar
    30    33    34   ar
    31    27    28   ar
    32     7     8    1
    33     8     9    1
    34     9     2    1
    35    16    10   ar
    36    21    17   ar
    37    28    23   ar
    38    34    29   ar
@<TRIPOS>MOLECULE
*****
 34 38 0 0 0
SMALL
GASTEIGER

@<TRIPOS>ATOM
      1 C          59.8527   89.1346    7.9582 C.3     1  UNL1        0.0339
      2 C          60.5061   89.3368    9.2931 C.3     1  UNL1        0.1351
      3 C          61.3150   88.2329    9.9072 C.3     1  UNL1        0.1231
      4 N          61.9684   88.4351   11.2421 N.am    1  UNL1       -0.2724
      5 C          62.7773   87.3311   11.8561 C.2     1  UNL1        0.2507
      6 O          63.4308   87.5333   13.1911 O.2     1  UNL1       -0.2698
      7 C          61.8131   89.7413   11.9630 C.3     1  UNL1        0.1096
      8 C          61.0043   90.8452   11.3490 C.3     1  UNL1        0.1621
      9 O          60.3508   90.6430   10.0141 O.3     1  UNL1       -0.3527
     10 C          62.9326   86.0249   11.1352 C.ar    1  UNL1        0.0738
     11 C          62.8480   85.9798    9.6383 C.ar    1  UNL1        0.0175
     12 C          63.0034   84.6735    8.9174 C.ar    1  UNL1        0.0579
     13 CL         62.9188   84.6283    7.4204 Cl      1  UNL1       -0.0822
     14 C          63.2434   83.4125    9.6934 C.ar    1  UNL1        0.0130
     15 C          63.3280   83.4577   11.1903 C.ar    1  UNL1        0.0219
     16 C          63.1726   84.7638   11.9112 C.ar    1  UNL1        0.1073
     17 N          63.2573   84.8090   13.4081 N.ar    1  UNL1       -0.1477
     18 N          64.5108   84.9718   14.2159 N.ar    1  UNL1       -0.1447
     19 C          64.1314   84.9627   15.6671 C.ar    1  UNL1        0.1446
     20 C          62.6436   84.7942   15.7563 C.ar    1  UNL1        0.1446
     21 N          62.1033   84.6992   14.3602 N.ar    1  UNL1       -0.1447
     22 C          62.4666   89.9435   13.2980 C.3     1  UNL1        0.0487
     23 C          63.8084   90.6084   13.3831 C.ar    1  UNL1       -0.0203
     24 C          64.6596   90.4262   14.6048 C.ar    1  UNL1       -0.0042
     25 C          66.0014   91.0912   14.6900 C.ar    1  UNL1       -0.0002
     26 C          66.4922   91.9383   13.5535 C.ar    1  UNL1        0.0030
     27 C          65.6411   92.1204   12.3318 C.ar    1  UNL1        0.0355
     28 C          64.2992   91.4555   12.2466 C.ar    1  UNL1       -0.0012
     29 C          66.1319   92.9675   11.1953 C.ar    1  UNL1        0.1622
     30 N          67.2143   92.4560   10.2916 N.ar    1  UNL1       -0.2250
     31 C          67.7051   93.3031    9.1552 C.ar    1  UNL1        0.1022
     32 C          67.1134   94.6617    8.9224 C.ar    1  UNL1        0.0414
     33 C          66.0309   95.1732    9.8261 C.ar    1  UNL1        0.1022
     34 N          65.5402   94.3261   10.9626 N.ar    1  UNL1       -0.2250
@<TRIPOS>BOND
     1     2     1    1
     2     2     3    1
     3     3     4    1
     4     4     5   am
     5     5     6    2
     6     5    10    1
     7    10    11   ar
     8    11    12   ar
     9    12    13    1
    10    12    14   ar
    11    14    15   ar
    12    15    16   ar
    13    16    17    1
    14    17    18   ar
    15    18    19   ar
    16    19    20   ar
    17    20    21   ar
    18     4     7    1
    19     7    22    1
    20    22    23    1
    21    23    24   ar
    22    24    25   ar
    23    25    26   ar
    24    26    27   ar
    25    27    29    1
    26    29    30   ar
    27    30    31   ar
    28    31    32   ar
    29    32    33   ar
    30    33    34   ar
    31    27    28   ar
    32     7     8    1
    33     8     9    1
    34     9     2    1
    35    16    10   ar
    36    21    17   ar
    37    28    23   ar
    38    34    29   ar
@<TRIPOS>MOLECULE
*****
 34 38 0 0 0
SMALL
GASTEIGER

@<TRIPOS>ATOM
      1 C          62.7711   86.3957   18.0771 C.3     1  UNL1        0.0339
      2 C          62.9982   87.4969   17.0842 C.3     1  UNL1        0.1351
      3 C          63.0750   87.1821   15.6196 C.3     1  UNL1        0.1231
      4 N          63.3020   88.2832   14.6267 N.am    1  UNL1       -0.2724
      5 C          63.3788   87.9684   13.1621 C.2     1  UNL1        0.2507
      6 O          63.6058   89.0696   12.1691 O.2     1  UNL1       -0.2698
      7 C          63.4522   89.6992   15.0983 C.3     1  UNL1        0.1096
      8 C          63.3754   90.0140   16.5629 C.3     1  UNL1        0.1621
      9 O          63.1484   88.9128   17.5558 O.3     1  UNL1       -0.3527
     10 C          63.2286   86.5524   12.6905 C.ar    1  UNL1        0.0738
     11 C          63.9957   85.4526   13.3628 C.ar    1  UNL1        0.0175
     12 C          63.8454   84.0366   12.8911 C.ar    1  UNL1        0.0579
     13 CL         64.6125   82.9368   13.5634 Cl      1  UNL1       -0.0822
     14 C          62.9282   83.7205   11.7472 C.ar    1  UNL1        0.0130
     15 C          62.1611   84.8203   11.0748 C.ar    1  UNL1        0.0219
     16 C          62.3113   86.2362   11.5465 C.ar    1  UNL1        0.1073
     17 N          61.5442   87.3361   10.8741 N.ar    1  UNL1       -0.1477
     18 N          61.7975   87.8731    9.4966 N.ar    1  UNL1       -0.1447
     19 C          60.7990   88.9609    9.2324 C.ar    1  UNL1        0.1446
     20 C          59.9287   89.0962   10.4466 C.ar    1  UNL1        0.1446
     21 N          60.3893   88.0920   11.4613 N.ar    1  UNL1       -0.1447
     22 C          63.6792   90.8004   14.1054 C.3     1  UNL1        0.0487
     23 C          65.0608   91.3433   13.8904 C.ar    1  UNL1       -0.0203
     24 C          66.1403   91.0659   14.8943 C.ar    1  UNL1       -0.0042
     25 C          67.5220   91.6089   14.6793 C.ar    1  UNL1       -0.0002
     26 C          67.8242   92.4291   13.4604 C.ar    1  UNL1        0.0030
     27 C          66.7448   92.7065   12.4564 C.ar    1  UNL1        0.0355
     28 C          65.3630   92.1636   12.6714 C.ar    1  UNL1       -0.0012
     29 C          67.0470   93.5268   11.2375 C.ar    1  UNL1        0.1622
     30 N          67.7673   92.9077   10.0765 N.ar    1  UNL1       -0.2250
     31 C          68.0695   93.7280    8.8576 C.ar    1  UNL1        0.1022
     32 C          67.6514   95.1674    8.7996 C.ar    1  UNL1        0.0414
     33 C          66.9311   95.7865    9.9607 C.ar    1  UNL1        0.1022
     34 N          66.6289   94.9662   11.1796 N.ar    1  UNL1       -0.2250
@<TRIPOS>BOND
     1     2     1    1
     2     2     3    1
     3     3     4    1
     4     4     5   am
     5     5     6    2
     6     5    10    1
     7    10    11   ar
     8    11    12   ar
     9    12    13    1
    10    12    14   ar
    11    14    15   ar
    12    15    16   ar
    13    16    17    1
    14    17    18   ar
    15    18    19   ar
    16    19    20   ar
    17    20    21   ar
    18     4     7    1
    19     7    22    1
    20    22    23    1
    21    23    24   ar
    22    24    25   ar
    23    25    26   ar
    24    26    27   ar
    25    27    29    1
    26    29    30   ar
    27    30    31   ar
    28    31    32   ar
    29    32    33   ar
    30    33    34   ar
    31    27    28   ar
    32     7     8    1
    33     8     9    1
    34     9     2    1
    35    16    10   ar
    36    21    17   ar
    37    28    23   ar
    38    34    29   ar
@<TRIPOS>MOLECULE
*****
 34 38 0 0 0
SMALL
GASTEIGER

@<TRIPOS>ATOM
      1 C          61.3269   87.1169    8.4886 C.3     1  UNL1        0.0339
      2 C          61.8115   87.8167    9.7237 C.3     1  UNL1        0.1351
      3 C          62.3617   87.0206   10.8697 C.3     1  UNL1        0.1231
      4 N          62.8462   87.7205   12.1048 N.am    1  UNL1       -0.2724
      5 C          63.3964   86.9243   13.2509 C.2     1  UNL1        0.2507
      6 O          63.8810   87.6241   14.4860 O.2     1  UNL1       -0.2698
      7 C          62.7807   89.2163   12.1938 C.3     1  UNL1        0.1096
      8 C          62.2305   90.0124   11.0477 C.3     1  UNL1        0.1621
      9 O          61.7459   89.3126    9.8127 O.3     1  UNL1       -0.3527
     10 C          63.4620   85.4284   13.1619 C.ar    1  UNL1        0.0738
     11 C          63.7531   84.7673   11.8473 C.ar    1  UNL1        0.0175
     12 C          63.8186   83.2714   11.7584 C.ar    1  UNL1        0.0579
     13 CL         64.1098   82.6103   10.4437 Cl      1  UNL1       -0.0822
     14 C          63.5931   82.4365   12.9840 C.ar    1  UNL1        0.0130
     15 C          63.3020   83.0976   14.2986 C.ar    1  UNL1        0.0219
     16 C          63.2364   84.5935   14.3876 C.ar    1  UNL1        0.1073
     17 N          62.9453   85.2546   15.7022 N.ar    1  UNL1       -0.1477
     18 N          61.5842   85.5700   16.2483 N.ar    1  UNL1       -0.1447
     19 C          61.7620   86.2267   17.5851 C.ar    1  UNL1        0.1446
     20 C          63.2328   86.3171   17.8654 C.ar    1  UNL1        0.1446
     21 N          63.9641   85.7164   16.7017 N.ar    1  UNL1       -0.1447
     22 C          63.2653   89.9162   13.4289 C.3     1  UNL1        0.0487
     23 C          64.5548   90.6817   13.4001 C.ar    1  UNL1       -0.0203
     24 C          65.5435   90.5280   14.5177 C.ar    1  UNL1       -0.0042
     25 C          66.8331   91.2935   14.4889 C.ar    1  UNL1       -0.0002
     26 C          67.1341   92.2128   13.3424 C.ar    1  UNL1        0.0030
     27 C          66.1456   92.3665   12.2248 C.ar    1  UNL1        0.0355
     28 C          64.8559   91.6009   12.2536 C.ar    1  UNL1       -0.0012
     29 C          66.4466   93.2857   11.0783 C.ar    1  UNL1        0.1622
     30 N          67.5237   92.9319   10.0962 N.ar    1  UNL1       -0.2250
     31 C          67.8248   93.8511    8.9497 C.ar    1  UNL1        0.1022
     32 C          67.0487   95.1242    8.7854 C.ar    1  UNL1        0.0414
     33 C          65.9715   95.4780    9.7675 C.ar    1  UNL1        0.1022
     34 N          65.6705   94.5588   10.9140 N.ar    1  UNL1       -0.2250
@<TRIPOS>BOND
     1     2     1    1
     2     2     3    1
     3     3     4    1
     4     4     5   am
     5     5     6    2
     6     5    10    1
     7    10    11   ar
     8    11    12   ar
     9    12    13    1
    10    12    14   ar
    11    14    15   ar
    12    15    16   ar
    13    16    17    1
    14    17    18   ar
    15    18    19   ar
    16    19    20   ar
    17    20    21   ar
    18     4     7    1
    19     7    22    1
    20    22    23    1
    21    23    24   ar
    22    24    25   ar
    23    25    26   ar
    24    26    27   ar
    25    27    29    1
    26    29    30   ar
    27    30    31   ar
    28    31    32   ar
    29    32    33   ar
    30    33    34   ar
    31    27    28   ar
    32     7     8    1
    33     8     9    1
    34     9     2    1
    35    16    10   ar
    36    21    17   ar
    37    28    23   ar
    38    34    29   ar
