@<TRIPOS>MOLECULE
*****
 33 37 0 0 0
SMALL
GASTEIGER

@<TRIPOS>ATOM
      1 C          63.5400   87.4633   13.3593 C.2     1  UNL1        0.2506
      2 O          63.6964   88.4511   12.2414 O.2     1  UNL1       -0.2699
      3 N          63.4266   87.9449   14.7753 N.am    1  UNL1       -0.2723
      4 C          63.2701   86.9571   15.8932 C.3     1  UNL1        0.1257
      5 C          63.1567   87.4387   17.3093 C.3     1  UNL1        0.1637
      6 O          63.1998   88.9081   17.6074 O.3     1  UNL1       -0.3502
      7 C          63.3562   89.8959   16.4895 C.3     1  UNL1        0.1622
      8 C          63.4696   89.4144   15.0734 C.3     1  UNL1        0.1096
      9 C          63.3679   81.5855   12.1667 C.3     1  UNL1        0.0311
     10 C          63.4109   83.0550   12.4648 C.ar    1  UNL1       -0.0203
     11 C          64.2615   83.5676   13.5889 C.ar    1  UNL1       -0.0040
     12 C          64.3045   85.0370   13.8871 C.ar    1  UNL1        0.0058
     13 C          63.4970   85.9939   13.0611 C.ar    1  UNL1        0.0729
     14 C          62.6464   85.4813   11.9370 C.ar    1  UNL1        0.1069
     15 C          62.6033   84.0118   11.6389 C.ar    1  UNL1        0.0168
     16 N          61.8388   86.4381   11.1110 N.ar    1  UNL1       -0.1477
     17 N          60.6493   87.2220   11.5808 N.ar    1  UNL1       -0.1447
     18 C          60.1542   88.0474   10.4304 C.ar    1  UNL1        0.1446
     19 C          61.0377   87.7736    9.2495 C.ar    1  UNL1        0.1446
     20 N          62.0788   86.7791    9.6701 N.ar    1  UNL1       -0.1447
     21 C          63.6261   90.4022   13.9556 C.3     1  UNL1        0.0488
     22 C          64.8646   91.2437   13.8661 C.ar    1  UNL1       -0.0181
     23 C          65.8495   91.2512   14.9974 C.ar    1  UNL1        0.0073
     24 C          67.0880   92.0927   14.9079 C.ar    1  UNL1        0.0589
     25 CL         68.0730   92.1001   16.0392 Cl      1  UNL1       -0.0822
     26 C          67.3416   92.9266   13.6872 C.ar    1  UNL1        0.0323
     27 C          66.3566   92.9191   12.5560 C.ar    1  UNL1        0.1034
     28 C          65.1181   92.0776   12.6454 C.ar    1  UNL1        0.0168
     29 N          66.6102   93.7531   11.3352 N.ar    1  UNL1       -0.1478
     30 N          67.7028   93.5364   10.3306 N.ar    1  UNL1       -0.1447
     31 C          67.5835   94.5996    9.2793 C.ar    1  UNL1        0.1446
     32 C          66.4170   95.4734    9.6340 C.ar    1  UNL1        0.1446
     33 N          65.8155   94.9503   10.9046 N.ar    1  UNL1       -0.1447
@<TRIPOS>BOND
     1     9    10    1
     2    10    11   ar
     3    11    12   ar
     4    12    13   ar
     5    13     1    1
     6     1     2    2
     7     1     3   am
     8     3     4    1
     9     4     5    1
    10     5     6    1
    11     6     7    1
    12     7     8    1
    13     8    21    1
    14    21    22    1
    15    22    23   ar
    16    23    24   ar
    17    24    25    1
    18    24    26   ar
    19    26    27   ar
    20    27    29    1
    21    29    30   ar
    22    30    31   ar
    23    31    32   ar
    24    32    33   ar
    25    27    28   ar
    26    13    14   ar
    27    14    16    1
    28    16    17   ar
    29    17    18   ar
    30    18    19   ar
    31    19    20   ar
    32    14    15   ar
    33    15    10   ar
    34     8     3    1
    35    28    22   ar
    36    20    16   ar
    37    33    29   ar
@<TRIPOS>MOLECULE
*****
 33 37 0 0 0
SMALL
GASTEIGER

@<TRIPOS>ATOM
      1 C          63.2562   87.0996   12.7963 C.2     1  UNL1        0.2506
      2 O          63.8915   87.5521   14.0775 O.2     1  UNL1       -0.2699
      3 N          62.7012   88.1100   11.8366 N.am    1  UNL1       -0.2723
      4 C          62.0658   87.6576   10.5553 C.3     1  UNL1        0.1257
      5 C          61.5108   88.6680    9.5957 C.3     1  UNL1        0.1637
      6 O          61.5910   90.1309    9.9173 O.3     1  UNL1       -0.3502
      7 C          62.2263   90.5834   11.1985 C.3     1  UNL1        0.1622
      8 C          62.7814   89.5730   12.1582 C.3     1  UNL1        0.1096
      9 C          62.9352   81.2479   11.5099 C.3     1  UNL1        0.0311
     10 C          63.0155   82.7109   11.8315 C.ar    1  UNL1       -0.0203
     11 C          63.1674   83.7143   10.7270 C.ar    1  UNL1       -0.0040
     12 C          63.2476   85.1773   11.0486 C.ar    1  UNL1        0.0058
     13 C          63.1760   85.6367   12.4747 C.ar    1  UNL1        0.0729
     14 C          63.0240   84.6332   13.5791 C.ar    1  UNL1        0.1069
     15 C          62.9438   83.1703   13.2575 C.ar    1  UNL1        0.0168
     16 N          62.9523   85.0927   15.0053 N.ar    1  UNL1       -0.1477
     17 N          64.1208   85.4400   15.8795 N.ar    1  UNL1       -0.1447
     18 C          63.5903   85.8474   17.2221 C.ar    1  UNL1        0.1446
     19 C          62.0939   85.7519   17.1776 C.ar    1  UNL1        0.1446
     20 N          61.6997   85.2854   15.8076 N.ar    1  UNL1       -0.1447
     21 C          63.4167   90.0255   13.4395 C.3     1  UNL1        0.0488
     22 C          64.6536   90.8733   13.4047 C.ar    1  UNL1       -0.0181
     23 C          65.6265   90.8276   14.5455 C.ar    1  UNL1        0.0073
     24 C          66.8634   91.6754   14.5108 C.ar    1  UNL1        0.0589
     25 CL         67.8363   91.6296   15.6517 Cl      1  UNL1       -0.0822
     26 C          67.1275   92.5689   13.3353 C.ar    1  UNL1        0.0323
     27 C          66.1547   92.6146   12.1945 C.ar    1  UNL1        0.1034
     28 C          64.9177   91.7668   12.2293 C.ar    1  UNL1        0.0168
     29 N          66.4187   93.5082   11.0190 N.ar    1  UNL1       -0.1478
     30 N          65.6188   94.7169   10.6330 N.ar    1  UNL1       -0.1447
     31 C          66.2347   95.3056    9.3985 C.ar    1  UNL1        0.1446
     32 C          67.4155   94.4607    9.0215 C.ar    1  UNL1        0.1446
     33 N          67.5291   93.3498   10.0230 N.ar    1  UNL1       -0.1447
@<TRIPOS>BOND
     1     9    10    1
     2    10    11   ar
     3    11    12   ar
     4    12    13   ar
     5    13     1    1
     6     1     2    2
     7     1     3   am
     8     3     4    1
     9     4     5    1
    10     5     6    1
    11     6     7    1
    12     7     8    1
    13     8    21    1
    14    21    22    1
    15    22    23   ar
    16    23    24   ar
    17    24    25    1
    18    24    26   ar
    19    26    27   ar
    20    27    29    1
    21    29    30   ar
    22    30    31   ar
    23    31    32   ar
    24    32    33   ar
    25    27    28   ar
    26    13    14   ar
    27    14    16    1
    28    16    17   ar
    29    17    18   ar
    30    18    19   ar
    31    19    20   ar
    32    14    15   ar
    33    15    10   ar
    34     8     3    1
    35    28    22   ar
    36    20    16   ar
    37    33    29   ar
@<TRIPOS>MOLECULE
*****
 33 37 0 0 0
SMALL
GASTEIGER

@<TRIPOS>ATOM
      1 C          62.7237   88.6117   11.5761 C.2     1  UNL1        0.2506
      2 O          62.6933   90.1106   11.5297 O.2     1  UNL1       -0.2699
      3 N          63.3613   87.9101   12.7385 N.am    1  UNL1       -0.2723
      4 C          63.3917   86.4111   12.7850 C.3     1  UNL1        0.1257
      5 C          64.0293   85.7095   13.9474 C.3     1  UNL1        0.1637
      6 O          64.6365   86.5069   15.0634 O.3     1  UNL1       -0.3502
      7 C          64.6061   88.0058   15.0170 C.3     1  UNL1        0.1622
      8 C          63.9685   88.7075   13.8546 C.3     1  UNL1        0.1096
      9 C          60.2949   85.4222    7.1121 C.3     1  UNL1        0.0311
     10 C          60.9021   86.2196    8.2281 C.ar    1  UNL1       -0.0203
     11 C          62.3515   86.0449    8.5723 C.ar    1  UNL1       -0.0040
     12 C          62.9587   86.8423    9.6883 C.ar    1  UNL1        0.0058
     13 C          62.1165   87.8143   10.4601 C.ar    1  UNL1        0.0729
     14 C          60.6670   87.9890   10.1159 C.ar    1  UNL1        0.1069
     15 C          60.0598   87.1916    8.9999 C.ar    1  UNL1        0.0168
     16 N          59.8247   88.9611   10.8877 N.ar    1  UNL1       -0.1477
     17 N          59.6032   90.4039   10.5423 N.ar    1  UNL1       -0.1447
     18 C          58.6976   90.9955   11.5815 C.ar    1  UNL1        0.1446
     19 C          58.3595   89.9184   12.5692 C.ar    1  UNL1        0.1446
     20 N          59.0561   88.6610   12.1404 N.ar    1  UNL1       -0.1447
     21 C          63.9381   90.2064   13.8082 C.3     1  UNL1        0.0488
     22 C          65.2212   90.9811   13.7483 C.ar    1  UNL1       -0.0181
     23 C          66.0786   91.1078   14.9725 C.ar    1  UNL1        0.0073
     24 C          67.3617   91.8825   14.9126 C.ar    1  UNL1        0.0589
     25 CL         68.2192   92.0092   16.1368 Cl      1  UNL1       -0.0822
     26 C          67.7874   92.5305   13.6285 C.ar    1  UNL1        0.0323
     27 C          66.9299   92.4037   12.4043 C.ar    1  UNL1        0.1034
     28 C          65.6468   91.6291   12.4642 C.ar    1  UNL1        0.0168
     29 N          67.3555   93.0517   11.1201 N.ar    1  UNL1       -0.1478
     30 N          67.0105   94.4429   10.6778 N.ar    1  UNL1       -0.1447
     31 C          67.6426   94.6732    9.3371 C.ar    1  UNL1        0.1446
     32 C          68.3784   93.4244    8.9509 C.ar    1  UNL1        0.1446
     33 N          68.2009   92.4223   10.0528 N.ar    1  UNL1       -0.1447
@<TRIPOS>BOND
     1     9    10    1
     2    10    11   ar
     3    11    12   ar
     4    12    13   ar
     5    13     1    1
     6     1     2    2
     7     1     3   am
     8     3     4    1
     9     4     5    1
    10     5     6    1
    11     6     7    1
    12     7     8    1
    13     8    21    1
    14    21    22    1
    15    22    23   ar
    16    23    24   ar
    17    24    25    1
    18    24    26   ar
    19    26    27   ar
    20    27    29    1
    21    29    30   ar
    22    30    31   ar
    23    31    32   ar
    24    32    33   ar
    25    27    28   ar
    26    13    14   ar
    27    14    16    1
    28    16    17   ar
    29    17    18   ar
    30    18    19   ar
    31    19    20   ar
    32    14    15   ar
    33    15    10   ar
    34     8     3    1
    35    28    22   ar
    36    20    16   ar
    37    33    29   ar
@<TRIPOS>MOLECULE
*****
 33 37 0 0 0
SMALL
GASTEIGER

@<TRIPOS>ATOM
      1 C          63.1393   86.6955   12.6130 C.2     1  UNL1        0.2506
      2 O          63.8537   87.3144   13.7777 O.2     1  UNL1       -0.2699
      3 N          62.4663   87.5687   11.5959 N.am    1  UNL1       -0.2723
      4 C          61.7519   86.9498   10.4312 C.3     1  UNL1        0.1257
      5 C          61.0789   87.8231    9.4141 C.3     1  UNL1        0.1637
      6 O          61.1203   89.3152    9.5617 O.3     1  UNL1       -0.3502
      7 C          61.8347   89.9341   10.7264 C.3     1  UNL1        0.1622
      8 C          62.5077   89.0609   11.7436 C.3     1  UNL1        0.1096
      9 C          62.9738   80.7269   12.0225 C.3     1  UNL1        0.0311
     10 C          63.0152   82.2191   12.1701 C.ar    1  UNL1       -0.0203
     11 C          63.1363   83.0899   10.9548 C.ar    1  UNL1       -0.0040
     12 C          63.1776   84.5820   11.1025 C.ar    1  UNL1        0.0058
     13 C          63.0979   85.2033   12.4654 C.ar    1  UNL1        0.0729
     14 C          62.9768   84.3325   13.6807 C.ar    1  UNL1        0.1069
     15 C          62.9355   82.8404   13.5330 C.ar    1  UNL1        0.0168
     16 N          62.8971   84.9538   15.0437 N.ar    1  UNL1       -0.1477
     17 N          61.6421   85.2065   15.8254 N.ar    1  UNL1       -0.1447
     18 C          62.0276   85.8403   17.1290 C.ar    1  UNL1        0.1446
     19 C          63.5210   85.9793   17.1530 C.ar    1  UNL1        0.1446
     20 N          64.0583   85.4314   15.8642 N.ar    1  UNL1       -0.1447
     21 C          63.2221   89.6798   12.9083 C.3     1  UNL1        0.0488
     22 C          64.2156   90.7801   12.6801 C.ar    1  UNL1       -0.0181
     23 C          64.1921   91.5578   11.3977 C.ar    1  UNL1        0.0073
     24 C          65.1857   92.6581   11.1695 C.ar    1  UNL1        0.0589
     25 CL         65.1622   93.4358    9.8870 Cl      1  UNL1       -0.0822
     26 C          66.2028   92.9808   12.2238 C.ar    1  UNL1        0.0323
     27 C          66.2263   92.2031   13.5061 C.ar    1  UNL1        0.1034
     28 C          65.2327   91.1028   13.7343 C.ar    1  UNL1        0.0168
     29 N          67.2434   92.5257   14.5605 N.ar    1  UNL1       -0.1478
     30 N          67.7842   93.8887   14.8761 N.ar    1  UNL1       -0.1447
     31 C          68.7732   93.7473   15.9949 C.ar    1  UNL1        0.1446
     32 C          68.8438   92.2968   16.3707 C.ar    1  UNL1        0.1446
     33 N          67.8983   91.5419   15.4842 N.ar    1  UNL1       -0.1447
@<TRIPOS>BOND
     1     9    10    1
     2    10    11   ar
     3    11    12   ar
     4    12    13   ar
     5    13     1    1
     6     1     2    2
     7     1     3   am
     8     3     4    1
     9     4     5    1
    10     5     6    1
    11     6     7    1
    12     7     8    1
    13     8    21    1
    14    21    22    1
    15    22    23   ar
    16    23    24   ar
    17    24    25    1
    18    24    26   ar
    19    26    27   ar
    20    27    29    1
    21    29    30   ar
    22    30    31   ar
    23    31    32   ar
    24    32    33   ar
    25    27    28   ar
    26    13    14   ar
    27    14    16    1
    28    16    17   ar
    29    17    18   ar
    30    18    19   ar
    31    19    20   ar
    32    14    15   ar
    33    15    10   ar
    34     8     3    1
    35    28    22   ar
    36    20    16   ar
    37    33    29   ar
@<TRIPOS>MOLECULE
*****
 33 37 0 0 0
SMALL
GASTEIGER

@<TRIPOS>ATOM
      1 C          64.0700   84.9818   14.1618 C.2     1  UNL1        0.2506
      2 O          65.1698   85.7063   13.4438 O.2     1  UNL1       -0.2699
      3 N          63.3676   85.6371   15.3139 N.am    1  UNL1       -0.2723
      4 C          62.2678   84.9126   16.0319 C.3     1  UNL1        0.1257
      5 C          61.5654   85.5678   17.1840 C.3     1  UNL1        0.1637
      6 O          61.9627   86.9476   17.6180 O.3     1  UNL1       -0.3502
      7 C          63.0625   87.6721   16.9000 C.3     1  UNL1        0.1622
      8 C          63.7650   87.0168   15.7479 C.3     1  UNL1        0.1096
      9 C          62.4806   79.4629   12.4256 C.3     1  UNL1        0.0311
     10 C          62.8779   80.8426   12.8597 C.ar    1  UNL1       -0.0203
     11 C          63.6718   81.0335   14.1179 C.ar    1  UNL1       -0.0040
     12 C          64.0691   82.4132   14.5520 C.ar    1  UNL1        0.0058
     13 C          63.6727   83.6021   13.7278 C.ar    1  UNL1        0.0729
     14 C          62.8788   83.4112   12.4695 C.ar    1  UNL1        0.1069
     15 C          62.4814   82.0314   12.0354 C.ar    1  UNL1        0.0168
     16 N          62.4823   84.6001   11.6452 N.ar    1  UNL1       -0.1477
     17 N          61.6261   85.7438   12.1022 N.ar    1  UNL1       -0.1447
     18 C          61.4869   86.7045   10.9587 C.ar    1  UNL1        0.1446
     19 C          62.2572   86.1545    9.7949 C.ar    1  UNL1        0.1446
     20 N          62.8723   84.8539   10.2192 N.ar    1  UNL1       -0.1447
     21 C          64.8647   87.7413   15.0299 C.3     1  UNL1        0.0488
     22 C          64.5530   88.9649   14.2202 C.ar    1  UNL1       -0.0181
     23 C          65.3416   90.2236   14.4291 C.ar    1  UNL1        0.0073
     24 C          65.0298   91.4471   13.6194 C.ar    1  UNL1        0.0589
     25 CL         65.8185   92.7059   13.8284 Cl      1  UNL1       -0.0822
     26 C          63.9294   91.4120   12.6006 C.ar    1  UNL1        0.0323
     27 C          63.1408   90.1533   12.3916 C.ar    1  UNL1        0.1034
     28 C          63.4526   88.9297   13.2014 C.ar    1  UNL1        0.0168
     29 N          62.0404   90.1181   11.3728 N.ar    1  UNL1       -0.1478
     30 N          62.2151   89.9605    9.8914 N.ar    1  UNL1       -0.1447
     31 C          60.8547   89.9793    9.2597 C.ar    1  UNL1        0.1446
     32 C          59.8392   90.1485   10.3507 C.ar    1  UNL1        0.1446
     33 N          60.5721   90.2343   11.6567 N.ar    1  UNL1       -0.1447
@<TRIPOS>BOND
     1     9    10    1
     2    10    11   ar
     3    11    12   ar
     4    12    13   ar
     5    13     1    1
     6     1     2    2
     7     1     3   am
     8     3     4    1
     9     4     5    1
    10     5     6    1
    11     6     7    1
    12     7     8    1
    13     8    21    1
    14    21    22    1
    15    22    23   ar
    16    23    24   ar
    17    24    25    1
    18    24    26   ar
    19    26    27   ar
    20    27    29    1
    21    29    30   ar
    22    30    31   ar
    23    31    32   ar
    24    32    33   ar
    25    27    28   ar
    26    13    14   ar
    27    14    16    1
    28    16    17   ar
    29    17    18   ar
    30    18    19   ar
    31    19    20   ar
    32    14    15   ar
    33    15    10   ar
    34     8     3    1
    35    28    22   ar
    36    20    16   ar
    37    33    29   ar
@<TRIPOS>MOLECULE
*****
 33 37 0 0 0
SMALL
GASTEIGER

@<TRIPOS>ATOM
      1 C          63.8819   85.3341   14.1236 C.2     1  UNL1        0.2506
      2 O          64.7884   86.0781   13.1883 O.2     1  UNL1       -0.2699
      3 N          63.3563   86.0105   15.3549 N.am    1  UNL1       -0.2723
      4 C          62.4498   85.2666   16.2903 C.3     1  UNL1        0.1257
      5 C          61.9242   85.9430   17.5217 C.3     1  UNL1        0.1637
      6 O          62.3051   87.3633   17.8177 O.3     1  UNL1       -0.3502
      7 C          63.2116   88.1072   16.8824 C.3     1  UNL1        0.1622
      8 C          63.7372   87.4308   15.6510 C.3     1  UNL1        0.1096
      9 C          62.3584   79.6529   12.9395 C.3     1  UNL1        0.0311
     10 C          62.7393   81.0732   13.2355 C.ar    1  UNL1       -0.0203
     11 C          63.4404   81.4099   14.5181 C.ar    1  UNL1       -0.0040
     12 C          63.8213   82.8302   14.8141 C.ar    1  UNL1        0.0058
     13 C          63.5010   83.9138   13.8276 C.ar    1  UNL1        0.0729
     14 C          62.7998   83.5771   12.5451 C.ar    1  UNL1        0.1069
     15 C          62.4190   82.1568   12.2490 C.ar    1  UNL1        0.0168
     16 N          62.4795   84.6607   11.5585 N.ar    1  UNL1       -0.1477
     17 N          61.5926   85.8447   11.8064 N.ar    1  UNL1       -0.1447
     18 C          61.5547   86.6663   10.5520 C.ar    1  UNL1        0.1446
     19 C          62.4183   85.9900    9.5288 C.ar    1  UNL1        0.1446
     20 N          62.9898   84.7505   10.1509 N.ar    1  UNL1       -0.1447
     21 C          64.6437   88.1748   14.7157 C.3     1  UNL1        0.0488
     22 C          64.0759   89.1953   13.7743 C.ar    1  UNL1       -0.0181
     23 C          62.7187   88.9860   13.1709 C.ar    1  UNL1        0.0073
     24 C          62.1509   90.0065   12.2296 C.ar    1  UNL1        0.0589
     25 CL         60.7936   89.7972   11.6262 Cl      1  UNL1       -0.0822
     26 C          62.9403   91.2363   11.8916 C.ar    1  UNL1        0.0323
     27 C          64.2976   91.4456   12.4949 C.ar    1  UNL1        0.1034
     28 C          64.8653   90.4251   13.4363 C.ar    1  UNL1        0.0168
     29 N          65.0871   92.6755   12.1569 N.ar    1  UNL1       -0.1478
     30 N          65.3315   93.2152   10.7789 N.ar    1  UNL1       -0.1447
     31 C          66.1663   94.4548   10.9080 C.ar    1  UNL1        0.1446
     32 C          66.4378   94.6811   12.3658 C.ar    1  UNL1        0.1446
     33 N          65.7708   93.5814   13.1376 N.ar    1  UNL1       -0.1447
@<TRIPOS>BOND
     1     9    10    1
     2    10    11   ar
     3    11    12   ar
     4    12    13   ar
     5    13     1    1
     6     1     2    2
     7     1     3   am
     8     3     4    1
     9     4     5    1
    10     5     6    1
    11     6     7    1
    12     7     8    1
    13     8    21    1
    14    21    22    1
    15    22    23   ar
    16    23    24   ar
    17    24    25    1
    18    24    26   ar
    19    26    27   ar
    20    27    29    1
    21    29    30   ar
    22    30    31   ar
    23    31    32   ar
    24    32    33   ar
    25    27    28   ar
    26    13    14   ar
    27    14    16    1
    28    16    17   ar
    29    17    18   ar
    30    18    19   ar
    31    19    20   ar
    32    14    15   ar
    33    15    10   ar
    34     8     3    1
    35    28    22   ar
    36    20    16   ar
    37    33    29   ar
@<TRIPOS>MOLECULE
*****
 33 37 0 0 0
SMALL
GASTEIGER

@<TRIPOS>ATOM
      1 C          63.4773   87.3506   13.2611 C.2     1  UNL1        0.2506
      2 O          63.4932   88.0924   11.9575 O.2     1  UNL1       -0.2699
      3 N          63.3814   88.1066   14.5530 N.am    1  UNL1       -0.2723
      4 C          63.3655   87.3649   15.8567 C.3     1  UNL1        0.1257
      5 C          63.2696   88.1209   17.1487 C.3     1  UNL1        0.1637
      6 O          63.1895   89.6187   17.1370 O.3     1  UNL1       -0.3502
      7 C          63.2054   90.3605   15.8334 C.3     1  UNL1        0.1622
      8 C          63.3013   89.6045   14.5414 C.3     1  UNL1        0.1096
      9 C          63.7975   81.3593   13.3078 C.3     1  UNL1        0.0311
     10 C          63.7175   82.8572   13.2961 C.ar    1  UNL1       -0.0203
     11 C          64.4172   83.6539   14.3570 C.ar    1  UNL1       -0.0040
     12 C          64.3371   85.1517   14.3453 C.ar    1  UNL1        0.0058
     13 C          63.5574   85.8528   13.2728 C.ar    1  UNL1        0.0729
     14 C          62.8577   85.0560   12.2119 C.ar    1  UNL1        0.1069
     15 C          62.9377   83.5582   12.2235 C.ar    1  UNL1        0.0168
     16 N          62.0779   85.7571   11.1392 N.ar    1  UNL1       -0.1477
     17 N          62.3661   85.7128    9.6678 N.ar    1  UNL1       -0.1447
     18 C          61.3394   86.5538    8.9688 C.ar    1  UNL1        0.1446
     19 C          60.4166   87.1179   10.0083 C.ar    1  UNL1        0.1446
     20 N          60.8731   86.6254   11.3496 N.ar    1  UNL1       -0.1447
     21 C          63.3172   90.3462   13.2377 C.3     1  UNL1        0.0488
     22 C          64.4437   91.2853   12.9228 C.ar    1  UNL1       -0.0181
     23 C          64.5342   91.9200   11.5668 C.ar    1  UNL1        0.0073
     24 C          65.6607   92.8591   11.2519 C.ar    1  UNL1        0.0589
     25 CL         65.7511   93.4938    9.8958 Cl      1  UNL1       -0.0822
     26 C          66.6967   93.1635   12.2930 C.ar    1  UNL1        0.0323
     27 C          66.6062   92.5288   13.6491 C.ar    1  UNL1        0.1034
     28 C          65.4797   91.5897   13.9640 C.ar    1  UNL1        0.0168
     29 N          67.6422   92.8331   14.6903 N.ar    1  UNL1       -0.1478
     30 N          68.3772   91.8256   15.5237 N.ar    1  UNL1       -0.1447
     31 C          69.3143   92.5682   16.4294 C.ar    1  UNL1        0.1446
     32 C          69.1585   94.0349   16.1557 C.ar    1  UNL1        0.1446
     33 N          68.1251   94.1985   15.0809 N.ar    1  UNL1       -0.1447
@<TRIPOS>BOND
     1     9    10    1
     2    10    11   ar
     3    11    12   ar
     4    12    13   ar
     5    13     1    1
     6     1     2    2
     7     1     3   am
     8     3     4    1
     9     4     5    1
    10     5     6    1
    11     6     7    1
    12     7     8    1
    13     8    21    1
    14    21    22    1
    15    22    23   ar
    16    23    24   ar
    17    24    25    1
    18    24    26   ar
    19    26    27   ar
    20    27    29    1
    21    29    30   ar
    22    30    31   ar
    23    31    32   ar
    24    32    33   ar
    25    27    28   ar
    26    13    14   ar
    27    14    16    1
    28    16    17   ar
    29    17    18   ar
    30    18    19   ar
    31    19    20   ar
    32    14    15   ar
    33    15    10   ar
    34     8     3    1
    35    28    22   ar
    36    20    16   ar
    37    33    29   ar
@<TRIPOS>MOLECULE
*****
 33 37 0 0 0
SMALL
GASTEIGER

@<TRIPOS>ATOM
      1 C          62.3697   87.9036   11.0985 C.2     1  UNL1        0.2506
      2 O          63.4807   88.5469   10.3229 O.2     1  UNL1       -0.2699
      3 N          61.1277   88.6825   11.4159 N.am    1  UNL1       -0.2723
      4 C          60.0166   88.0392   12.1915 C.3     1  UNL1        0.1257
      5 C          58.7746   88.8181   12.5089 C.3     1  UNL1        0.1637
      6 O          58.6437   90.2404   12.0506 O.3     1  UNL1       -0.3502
      7 C          59.7547   90.8837   11.2749 C.3     1  UNL1        0.1622
      8 C          60.9968   90.1048   10.9576 C.3     1  UNL1        0.1096
      9 C          62.8933   82.2145   12.9317 C.3     1  UNL1        0.0311
     10 C          62.7624   83.6368   12.4734 C.ar    1  UNL1       -0.0203
     11 C          63.2643   84.7533   13.3402 C.ar    1  UNL1       -0.0040
     12 C          63.1334   86.1756   12.8820 C.ar    1  UNL1        0.0058
     13 C          62.5006   86.4813   11.5568 C.ar    1  UNL1        0.0729
     14 C          61.9987   85.3648   10.6900 C.ar    1  UNL1        0.1069
     15 C          62.1296   83.9425   11.1483 C.ar    1  UNL1        0.0168
     16 N          61.3658   85.6705    9.3648 N.ar    1  UNL1       -0.1477
     17 N          61.9181   85.3053    8.0188 N.ar    1  UNL1       -0.1447
     18 C          60.9632   85.8041    6.9750 C.ar    1  UNL1        0.1446
     19 C          59.8208   86.4778    7.6760 C.ar    1  UNL1        0.1446
     20 N          60.0697   86.3952    9.1529 N.ar    1  UNL1       -0.1447
     21 C          62.1078   90.7481   10.1819 C.3     1  UNL1        0.0488
     22 C          63.2739   91.3545   10.9048 C.ar    1  UNL1       -0.0181
     23 C          63.5508   90.9781   12.3301 C.ar    1  UNL1        0.0073
     24 C          64.7169   91.5844   13.0530 C.ar    1  UNL1        0.0589
     25 CL         64.9938   91.2080   14.4784 Cl      1  UNL1       -0.0822
     26 C          65.6061   92.5672   12.3506 C.ar    1  UNL1        0.0323
     27 C          65.3293   92.9435   10.9252 C.ar    1  UNL1        0.1034
     28 C          64.1632   92.3372   10.2024 C.ar    1  UNL1        0.0168
     29 N          66.2185   93.9263   10.2227 N.ar    1  UNL1       -0.1478
     30 N          67.3491   93.5874    9.2970 N.ar    1  UNL1       -0.1447
     31 C          67.9625   94.8721    8.8247 C.ar    1  UNL1        0.1446
     32 C          67.2111   96.0052    9.4586 C.ar    1  UNL1        0.1446
     33 N          66.1332   95.4206   10.3225 N.ar    1  UNL1       -0.1447
@<TRIPOS>BOND
     1     9    10    1
     2    10    11   ar
     3    11    12   ar
     4    12    13   ar
     5    13     1    1
     6     1     2    2
     7     1     3   am
     8     3     4    1
     9     4     5    1
    10     5     6    1
    11     6     7    1
    12     7     8    1
    13     8    21    1
    14    21    22    1
    15    22    23   ar
    16    23    24   ar
    17    24    25    1
    18    24    26   ar
    19    26    27   ar
    20    27    29    1
    21    29    30   ar
    22    30    31   ar
    23    31    32   ar
    24    32    33   ar
    25    27    28   ar
    26    13    14   ar
    27    14    16    1
    28    16    17   ar
    29    17    18   ar
    30    18    19   ar
    31    19    20   ar
    32    14    15   ar
    33    15    10   ar
    34     8     3    1
    35    28    22   ar
    36    20    16   ar
    37    33    29   ar
@<TRIPOS>MOLECULE
*****
 33 37 0 0 0
SMALL
GASTEIGER

@<TRIPOS>ATOM
      1 C          62.7347   89.2219   11.6956 C.2     1  UNL1        0.2506
      2 O          62.9109   88.0329   12.5928 O.2     1  UNL1       -0.2699
      3 N          61.6676   89.2145   10.6415 N.am    1  UNL1       -0.2723
      4 C          61.4914   90.4036    9.7442 C.3     1  UNL1        0.1257
      5 C          60.4242   90.3961    8.6901 C.3     1  UNL1        0.1637
      6 O          59.5332   89.1997    8.5333 O.3     1  UNL1       -0.3502
      7 C          59.7094   88.0106    9.4306 C.3     1  UNL1        0.1622
      8 C          60.7766   88.0180   10.4847 C.3     1  UNL1        0.1096
      9 C          66.2987   94.0078   12.3228 C.3     1  UNL1        0.0311
     10 C          65.4077   92.8113   12.1660 C.ar    1  UNL1       -0.0203
     11 C          64.8358   92.4732   10.8212 C.ar    1  UNL1       -0.0040
     12 C          63.9448   91.2768   10.6644 C.ar    1  UNL1        0.0058
     13 C          63.6257   90.4184   11.8524 C.ar    1  UNL1        0.0729
     14 C          64.1977   90.7564   13.1971 C.ar    1  UNL1        0.1069
     15 C          65.0887   91.9529   13.3540 C.ar    1  UNL1        0.0168
     16 N          63.8787   89.8980   14.3852 N.ar    1  UNL1       -0.1477
     17 N          64.5485   88.6046   14.7437 N.ar    1  UNL1       -0.1447
     18 C          63.9177   88.0895   16.0034 C.ar    1  UNL1        0.1446
     19 C          62.8580   89.0646   16.4234 C.ar    1  UNL1        0.1446
     20 N          62.8340   90.1823   15.4233 N.ar    1  UNL1       -0.1447
     21 C          60.9527   86.8290   11.3819 C.3     1  UNL1        0.0488
     22 C          61.7874   85.6668   10.9318 C.ar    1  UNL1       -0.0181
     23 C          62.3667   85.6507    9.5483 C.ar    1  UNL1        0.0073
     24 C          63.2014   84.4886    9.0981 C.ar    1  UNL1        0.0589
     25 CL         63.7807   84.4725    7.7146 Cl      1  UNL1       -0.0822
     26 C          63.4567   83.3424   10.0315 C.ar    1  UNL1        0.0323
     27 C          62.8774   83.3585   11.4149 C.ar    1  UNL1        0.1034
     28 C          62.0427   84.5207   11.8651 C.ar    1  UNL1        0.0168
     29 N          63.1327   82.2123   12.3484 N.ar    1  UNL1       -0.1478
     30 N          64.4266   81.9153   13.0467 N.ar    1  UNL1       -0.1447
     31 C          64.2325   80.6814   13.8772 C.ar    1  UNL1        0.1446
     32 C          62.8186   80.2157   13.6921 C.ar    1  UNL1        0.1446
     33 N          62.1390   81.1619   12.7472 N.ar    1  UNL1       -0.1447
@<TRIPOS>BOND
     1     9    10    1
     2    10    11   ar
     3    11    12   ar
     4    12    13   ar
     5    13     1    1
     6     1     2    2
     7     1     3   am
     8     3     4    1
     9     4     5    1
    10     5     6    1
    11     6     7    1
    12     7     8    1
    13     8    21    1
    14    21    22    1
    15    22    23   ar
    16    23    24   ar
    17    24    25    1
    18    24    26   ar
    19    26    27   ar
    20    27    29    1
    21    29    30   ar
    22    30    31   ar
    23    31    32   ar
    24    32    33   ar
    25    27    28   ar
    26    13    14   ar
    27    14    16    1
    28    16    17   ar
    29    17    18   ar
    30    18    19   ar
    31    19    20   ar
    32    14    15   ar
    33    15    10   ar
    34     8     3    1
    35    28    22   ar
    36    20    16   ar
    37    33    29   ar
