@<TRIPOS>MOLECULE
*****
 54 58 0 0 0
SMALL
GASTEIGER

@<TRIPOS>ATOM
      1 N          61.5932   89.3983   11.8904 N.am    1  UNL1       -0.2770
      2 C          62.0754   88.9237   10.5516 C.2     1  UNL1        0.2270
      3 O          63.5229   88.5845   10.3529 O.2     1  UNL1       -0.2748
      4 C          61.1100   88.7881    9.4116 C.3     1  UNL1        0.0964
      5 C          60.3175   89.9768    8.9545 C.3     1  UNL1        0.0780
      6 N          59.3521   89.8413    7.8146 N.3     1  UNL1       -0.2970
      7 C          59.1791   88.5171    7.1317 C.3     1  UNL1        0.0689
      8 C          59.9715   87.3282    7.5887 C.3     1  UNL1        0.0220
      9 C          60.9370   87.4638    8.7287 C.3     1  UNL1        0.0337
     10 H          59.6467   90.5055    7.0987 H       1  UNL1        0.1233
     11 C          61.7294   86.2751    9.1858 C.ar    1  UNL1       -0.0217
     12 C          62.6705   85.5917    8.2384 C.ar    1  UNL1       -0.0012
     13 C          63.4629   84.4030    8.6955 C.ar    1  UNL1        0.0366
     14 C          63.3143   83.8976   10.1000 C.ar    1  UNL1        0.1387
     15 C          62.3733   84.5809   11.0473 C.ar    1  UNL1        0.0366
     16 C          61.5808   85.7697   10.5903 C.ar    1  UNL1       -0.0012
     17 O          64.1067   82.7089   10.5571 O.3     1  UNL1       -0.4714
     18 C          63.4343   81.6094   11.3246 C.3     1  UNL1        0.2525
     19 C          63.5187   81.5798   12.8219 C.3     1  UNL1        0.2525
     20 O          64.4845   82.4780   13.5365 O.3     1  UNL1       -0.4697
     21 C          63.9760   83.5210   14.4871 C.ar    1  UNL1        0.1596
     22 C          64.8390   84.6948   14.8442 C.ar    1  UNL1        0.0921
     23 CL         66.2104   84.8256   14.2508 Cl      1  UNL1       -0.0791
     24 C          64.3305   85.7378   15.7949 C.ar    1  UNL1        0.0103
     25 C          62.9591   85.6071   16.3883 C.ar    1  UNL1       -0.0200
     26 C          62.4506   86.6501   17.3388 C.3     1  UNL1        0.0311
     27 C          62.0961   84.4332   16.0311 C.ar    1  UNL1        0.0103
     28 C          62.6046   83.3903   15.0805 C.ar    1  UNL1        0.0921
     29 CL         61.7417   82.2164   14.7233 Cl      1  UNL1       -0.0791
     30 C          60.1457   89.7374   12.0891 C.3     1  UNL1        0.0758
     31 C          58.7851   89.3732   12.6051 C.3     1  UNL1        0.0215
     32 C          58.9989   90.6890   11.9174 C.3     1  UNL1        0.0215
     33 C          62.5586   89.5339   13.0304 C.3     1  UNL1        0.1201
     34 C          65.4857   91.9466   14.1971 C.ar    1  UNL1       -0.0194
     35 C          64.4443   90.8673   14.2205 C.ar    1  UNL1       -0.0067
     36 C          63.6000   90.6133   13.0070 C.ar    1  UNL1        0.0004
     37 C          63.7970   91.4387   11.7701 C.ar    1  UNL1        0.0343
     38 C          64.8383   92.5180   11.7467 C.ar    1  UNL1        0.1380
     39 C          65.6827   92.7720   12.9603 C.ar    1  UNL1        0.0326
     40 O          65.0354   93.3434   10.5098 O.3     1  UNL1       -0.4754
     41 C          65.5451   94.7499   10.6200 C.3     1  UNL1        0.2069
     42 C          66.0672   95.4559    9.4038 C.3     1  UNL1        0.0661
     43 C          67.4858   95.2442    8.9649 C.3     1  UNL1        0.0949
     44 N          68.3692   94.2927    9.7161 N.3     1  UNL1       -0.1831
     45 H          68.0993   94.3530   10.6979 H       1  UNL1        0.1484
     46 S          68.3782   92.8360    9.3581 S.O2    1  UNL1        0.0426
     47 C          68.3872   91.3794    9.0001 C.3     1  UNL1        0.1957
     48 O          68.3532   93.1938    7.9017 O.2     1  UNL1       -0.1575
     49 O          68.4032   92.4782   10.8146 O.2     1  UNL1       -0.1575
     50 C          66.3300   92.2006   15.4107 C.3     1  UNL1        0.0290
     51 C          67.7040   91.6066   15.5060 C.3     1  UNL1        0.0367
     52 C          68.8048   92.1175   14.6245 C.3     1  UNL1        0.1426
     53 C          69.1268   94.1824   16.1680 C.3     1  UNL1        0.1741
     54 O          69.3995   93.4715   14.8756 O.3     1  UNL1       -0.3511
@<TRIPOS>BOND
     1    53    54    1
     2    54    52    1
     3    52    51    1
     4    51    50    1
     5    50    34    1
     6    34    35   ar
     7    35    36   ar
     8    36    33    1
     9    33     1    1
    10     1     2   am
    11     2     3    2
    12     4     2    1
    13     4     5    1
    14     5     6    1
    15     6     7    1
    16     7     8    1
    17     8     9    1
    18     9    11    1
    19    11    12   ar
    20    12    13   ar
    21    13    14   ar
    22    14    17    1
    23    17    18    1
    24    18    19    1
    25    19    20    1
    26    20    21    1
    27    21    22   ar
    28    22    23    1
    29    22    24   ar
    30    24    25   ar
    31    25    26    1
    32    25    27   ar
    33    27    28   ar
    34    28    29    1
    35    14    15   ar
    36    15    16   ar
    37     1    30    1
    38    30    31    1
    39    31    32    1
    40    36    37   ar
    41    37    38   ar
    42    38    40    1
    43    40    41    1
    44    41    42    1
    45    42    43    1
    46    43    44    1
    47    44    46    1
    48    46    47    1
    49    46    48    2
    50    46    49    2
    51    38    39   ar
    52    39    34   ar
    53     9     4    1
    54    16    11   ar
    55    32    30    1
    56    28    21   ar
    57     6    10    1
    58    44    45    1
@<TRIPOS>MOLECULE
*****
 54 58 0 0 0
SMALL
GASTEIGER

@<TRIPOS>ATOM
      1 N          62.6515   85.3207    9.1871 N.am    1  UNL1       -0.2770
      2 C          61.7614   86.3572    9.8063 C.2     1  UNL1        0.2270
      3 O          61.9285   86.7230   11.2513 O.2     1  UNL1       -0.2748
      4 C          60.7041   87.0280    8.9803 C.3     1  UNL1        0.0964
      5 C          59.8340   86.2128    8.0701 C.3     1  UNL1        0.0780
      6 N          58.7767   86.8836    7.2441 N.3     1  UNL1       -0.2970
      7 C          58.5895   88.3694    7.3283 C.3     1  UNL1        0.0689
      8 C          59.4596   89.1846    8.2385 C.3     1  UNL1        0.0220
      9 C          60.5169   88.5139    9.0645 C.3     1  UNL1        0.0337
     10 H          57.8864   86.4594    7.5046 H       1  UNL1        0.1233
     11 C          61.3870   89.3290    9.9746 C.ar    1  UNL1       -0.0217
     12 C          62.4881   90.1721    9.4030 C.ar    1  UNL1       -0.0012
     13 C          63.3583   90.9873   10.3131 C.ar    1  UNL1        0.0366
     14 C          63.1273   90.9593   11.7950 C.ar    1  UNL1        0.1387
     15 C          62.0263   90.1163   12.3667 C.ar    1  UNL1        0.0366
     16 C          61.1561   89.3011   11.4565 C.ar    1  UNL1       -0.0012
     17 O          63.9974   91.7745   12.7051 O.3     1  UNL1       -0.4714
     18 C          65.4192   92.0629   12.3236 C.3     1  UNL1        0.2525
     19 C          66.0487   93.3689   12.7082 C.3     1  UNL1        0.2525
     20 O          67.1877   93.9188   11.9018 O.3     1  UNL1       -0.4697
     21 C          66.9151   94.6524   10.6220 C.ar    1  UNL1        0.1596
     22 C          66.2947   96.0175   10.6576 C.ar    1  UNL1        0.0921
     23 CL         65.9466   96.6492   11.9729 Cl      1  UNL1       -0.0791
     24 C          66.0221   96.7511    9.3779 C.ar    1  UNL1        0.0103
     25 C          66.3702   96.1195    8.0626 C.ar    1  UNL1       -0.0200
     26 C          66.0977   96.8530    6.7829 C.3     1  UNL1        0.0311
     27 C          66.9907   94.7542    8.0271 C.ar    1  UNL1        0.0103
     28 C          67.2632   94.0207    9.3068 C.ar    1  UNL1        0.0921
     29 CL         67.8837   92.6555    9.2713 Cl      1  UNL1       -0.0791
     30 C          62.4843   84.9549    7.7420 C.3     1  UNL1        0.0758
     31 C          63.0809   84.6925    6.3910 C.3     1  UNL1        0.0215
     32 C          61.5982   84.5838    6.5901 C.3     1  UNL1        0.0215
     33 C          63.7088   84.6499   10.0131 C.3     1  UNL1        0.1201
     34 C          62.7631   81.8405   12.6519 C.ar    1  UNL1       -0.0194
     35 C          63.1307   82.5031   11.3573 C.ar    1  UNL1       -0.0067
     36 C          63.3412   83.9874   11.3077 C.ar    1  UNL1        0.0004
     37 C          63.1840   84.8092   12.5526 C.ar    1  UNL1        0.0343
     38 C          62.8164   84.1467   13.8472 C.ar    1  UNL1        0.1380
     39 C          62.6059   82.6624   13.8968 C.ar    1  UNL1        0.0326
     40 O          62.6592   84.9685   15.0922 O.3     1  UNL1       -0.4754
     41 C          63.8716   85.4170   15.8529 C.3     1  UNL1        0.2069
     42 C          64.8810   86.3112   15.1958 C.3     1  UNL1        0.0661
     43 C          64.4695   87.6620   14.6897 C.3     1  UNL1        0.0949
     44 N          63.4358   88.4574   15.4305 N.3     1  UNL1       -0.1831
     45 H          63.2832   87.9847   16.3214 H       1  UNL1        0.1484
     46 S          63.6846   89.9030   15.7443 S.O2    1  UNL1        0.0426
     47 C          63.9334   91.3485   16.0581 C.3     1  UNL1        0.1957
     48 O          62.4323   89.9395   16.5691 O.2     1  UNL1       -0.1575
     49 O          64.9369   89.8665   14.9195 O.2     1  UNL1       -0.1575
     50 C          62.5526   80.3562   12.7015 C.3     1  UNL1        0.0290
     51 C          61.3673   79.7906   13.4260 C.3     1  UNL1        0.0367
     52 C          60.4133   80.7068   14.1334 C.3     1  UNL1        0.1426
     53 C          58.8064   78.7139   14.5761 C.3     1  UNL1        0.1741
     54 O          59.0928   80.1857   14.6178 O.3     1  UNL1       -0.3511
@<TRIPOS>BOND
     1    53    54    1
     2    54    52    1
     3    52    51    1
     4    51    50    1
     5    50    34    1
     6    34    35   ar
     7    35    36   ar
     8    36    33    1
     9    33     1    1
    10     1     2   am
    11     2     3    2
    12     4     2    1
    13     4     5    1
    14     5     6    1
    15     6     7    1
    16     7     8    1
    17     8     9    1
    18     9    11    1
    19    11    12   ar
    20    12    13   ar
    21    13    14   ar
    22    14    17    1
    23    17    18    1
    24    18    19    1
    25    19    20    1
    26    20    21    1
    27    21    22   ar
    28    22    23    1
    29    22    24   ar
    30    24    25   ar
    31    25    26    1
    32    25    27   ar
    33    27    28   ar
    34    28    29    1
    35    14    15   ar
    36    15    16   ar
    37     1    30    1
    38    30    31    1
    39    31    32    1
    40    36    37   ar
    41    37    38   ar
    42    38    40    1
    43    40    41    1
    44    41    42    1
    45    42    43    1
    46    43    44    1
    47    44    46    1
    48    46    47    1
    49    46    48    2
    50    46    49    2
    51    38    39   ar
    52    39    34   ar
    53     9     4    1
    54    16    11   ar
    55    32    30    1
    56    28    21   ar
    57     6    10    1
    58    44    45    1
@<TRIPOS>MOLECULE
*****
 54 58 0 0 0
SMALL
GASTEIGER

@<TRIPOS>ATOM
      1 N          61.6563   89.8951   10.9500 N.am    1  UNL1       -0.2770
      2 C          61.9472   89.0883    9.7193 C.2     1  UNL1        0.2270
      3 O          63.3543   88.9744    9.2124 O.2     1  UNL1       -0.2748
      4 C          60.8308   88.3956    8.9955 C.3     1  UNL1        0.0964
      5 C          59.8312   89.1972    8.2157 C.3     1  UNL1        0.0780
      6 N          58.7149   88.5044    7.4919 N.3     1  UNL1       -0.2970
      7 C          58.5982   87.0100    7.5479 C.3     1  UNL1        0.0689
      8 C          59.5979   86.2083    8.3277 C.3     1  UNL1        0.0220
      9 C          60.7142   86.9011    9.0515 C.3     1  UNL1        0.0337
     10 H          58.8013   88.7563    6.5073 H       1  UNL1        0.1233
     11 C          61.7139   86.0995    9.8313 C.ar    1  UNL1       -0.0217
     12 C          62.7976   85.3501    9.1143 C.ar    1  UNL1       -0.0012
     13 C          63.7972   84.5485    9.8941 C.ar    1  UNL1        0.0366
     14 C          63.7132   84.4963   11.3908 C.ar    1  UNL1        0.1387
     15 C          62.6296   85.2457   12.1078 C.ar    1  UNL1        0.0366
     16 C          61.6299   86.0473   11.3280 C.ar    1  UNL1       -0.0012
     17 O          64.7129   83.6947   12.1706 O.3     1  UNL1       -0.4714
     18 C          64.4269   83.3199   13.5947 C.3     1  UNL1        0.2525
     19 C          63.2700   82.4209   13.9158 C.3     1  UNL1        0.2525
     20 O          62.3358   81.9830   12.8270 O.3     1  UNL1       -0.4697
     21 C          62.5365   80.6571   12.1547 C.ar    1  UNL1        0.1596
     22 C          62.8914   80.6008   10.6984 C.ar    1  UNL1        0.0921
     23 CL         63.0455   81.8702    9.9143 Cl      1  UNL1       -0.0791
     24 C          63.0921   79.2750   10.0261 C.ar    1  UNL1        0.0103
     25 C          62.9380   78.0055   10.8101 C.ar    1  UNL1       -0.0200
     26 C          63.1388   76.6797   10.1379 C.3     1  UNL1        0.0311
     27 C          62.5832   78.0619   12.2665 C.ar    1  UNL1        0.0103
     28 C          62.3824   79.3877   12.9387 C.ar    1  UNL1        0.0921
     29 CL         62.0276   79.4441   14.3951 Cl      1  UNL1       -0.0791
     30 C          60.2492   90.0091   11.4568 C.3     1  UNL1        0.0758
     31 C          59.0812   89.4202   12.1911 C.3     1  UNL1        0.0215
     32 C          58.9799   90.7953   11.6005 C.3     1  UNL1        0.0215
     33 C          62.7726   90.5879   11.6738 C.3     1  UNL1        0.1201
     34 C          64.1127   88.1039   14.4637 C.ar    1  UNL1       -0.0194
     35 C          63.6398   88.6257   13.1393 C.ar    1  UNL1       -0.0067
     36 C          63.2455   90.0661   12.9982 C.ar    1  UNL1        0.0004
     37 C          63.3240   90.9846   14.1815 C.ar    1  UNL1        0.0343
     38 C          63.7969   90.4627   15.5059 C.ar    1  UNL1        0.1380
     39 C          64.1912   89.0224   15.6470 C.ar    1  UNL1        0.0326
     40 O          63.8754   91.3812   16.6892 O.3     1  UNL1       -0.4754
     41 C          64.9712   92.4020   16.7749 C.3     1  UNL1        0.2069
     42 C          66.1920   92.2659   15.9140 C.3     1  UNL1        0.0661
     43 C          66.3497   93.1256   14.6950 C.3     1  UNL1        0.0949
     44 N          67.2330   92.6758   13.5692 N.3     1  UNL1       -0.1831
     45 H          67.5325   91.7264   13.7913 H       1  UNL1        0.1484
     46 S          66.7031   92.6457   12.1662 S.O2    1  UNL1        0.0426
     47 C          66.1733   92.6156   10.7632 C.3     1  UNL1        0.1957
     48 O          68.0373   92.1701   11.6726 O.2     1  UNL1       -0.1575
     49 O          65.3689   93.1213   12.6598 O.2     1  UNL1       -0.1575
     50 C          64.5070   86.6635   14.6048 C.3     1  UNL1        0.0290
     51 C          64.1586   85.9094   15.8538 C.3     1  UNL1        0.0367
     52 C          62.7217   85.6461   16.1947 C.3     1  UNL1        0.1426
     53 C          62.5858   86.8346   18.5010 C.3     1  UNL1        0.1741
     54 O          61.9998   86.5498   17.1499 O.3     1  UNL1       -0.3511
@<TRIPOS>BOND
     1    53    54    1
     2    54    52    1
     3    52    51    1
     4    51    50    1
     5    50    34    1
     6    34    35   ar
     7    35    36   ar
     8    36    33    1
     9    33     1    1
    10     1     2   am
    11     2     3    2
    12     4     2    1
    13     4     5    1
    14     5     6    1
    15     6     7    1
    16     7     8    1
    17     8     9    1
    18     9    11    1
    19    11    12   ar
    20    12    13   ar
    21    13    14   ar
    22    14    17    1
    23    17    18    1
    24    18    19    1
    25    19    20    1
    26    20    21    1
    27    21    22   ar
    28    22    23    1
    29    22    24   ar
    30    24    25   ar
    31    25    26    1
    32    25    27   ar
    33    27    28   ar
    34    28    29    1
    35    14    15   ar
    36    15    16   ar
    37     1    30    1
    38    30    31    1
    39    31    32    1
    40    36    37   ar
    41    37    38   ar
    42    38    40    1
    43    40    41    1
    44    41    42    1
    45    42    43    1
    46    43    44    1
    47    44    46    1
    48    46    47    1
    49    46    48    2
    50    46    49    2
    51    38    39   ar
    52    39    34   ar
    53     9     4    1
    54    16    11   ar
    55    32    30    1
    56    28    21   ar
    57     6    10    1
    58    44    45    1
@<TRIPOS>MOLECULE
*****
 54 58 0 0 0
SMALL
GASTEIGER

@<TRIPOS>ATOM
      1 N          61.6681   89.6125   11.5883 N.am    1  UNL1       -0.2770
      2 C          62.0465   89.1301   10.2192 C.2     1  UNL1        0.2270
      3 O          63.4760   88.7977    9.9097 O.2     1  UNL1       -0.2748
      4 C          60.9953   88.9801    9.1598 C.3     1  UNL1        0.0964
      5 C          60.1772   90.1659    8.7417 C.3     1  UNL1        0.0780
      6 N          59.1260   90.0159    7.6823 N.3     1  UNL1       -0.2970
      7 C          58.8928   88.6802    7.0408 C.3     1  UNL1        0.0689
      8 C          59.7108   87.4944    7.4589 C.3     1  UNL1        0.0220
      9 C          60.7621   87.6443    8.5183 C.3     1  UNL1        0.0337
     10 H          59.3686   90.6641    6.9329 H       1  UNL1        0.1233
     11 C          61.5801   86.4586    8.9364 C.ar    1  UNL1       -0.0217
     12 C          62.4411   85.7500    7.9330 C.ar    1  UNL1       -0.0012
     13 C          63.2591   84.5643    8.3510 C.ar    1  UNL1        0.0366
     14 C          63.2162   84.0870    9.7724 C.ar    1  UNL1        0.1387
     15 C          62.3552   84.7955   10.7758 C.ar    1  UNL1        0.0366
     16 C          61.5372   85.9813   10.3578 C.ar    1  UNL1       -0.0012
     17 O          64.0342   82.9013   10.1905 O.3     1  UNL1       -0.4714
     18 C          64.7493   82.9107   11.5091 C.3     1  UNL1        0.2525
     19 C          64.1672   82.1809   12.6831 C.3     1  UNL1        0.2525
     20 O          64.6671   82.4684   14.0678 O.3     1  UNL1       -0.4697
     21 C          64.1195   83.6349   14.8358 C.ar    1  UNL1        0.1596
     22 C          62.7056   83.6064   15.3358 C.ar    1  UNL1        0.0921
     23 CL         61.8392   82.4116   15.0679 Cl      1  UNL1       -0.0791
     24 C          62.1580   84.7729   16.1037 C.ar    1  UNL1        0.0103
     25 C          63.0244   85.9677   16.3716 C.ar    1  UNL1       -0.0200
     26 C          62.4768   87.1341   17.1395 C.3     1  UNL1        0.0311
     27 C          64.4383   85.9961   15.8716 C.ar    1  UNL1        0.0103
     28 C          64.9858   84.8297   15.1037 C.ar    1  UNL1        0.0921
     29 CL         66.3998   84.8581   14.6036 Cl      1  UNL1       -0.0791
     30 C          60.2385   89.9449   11.8978 C.3     1  UNL1        0.0758
     31 C          59.0617   90.8659   11.7685 C.3     1  UNL1        0.0215
     32 C          58.9393   89.5996   12.5632 C.3     1  UNL1        0.0215
     33 C          62.7193   89.7624   12.6477 C.3     1  UNL1        0.1201
     34 C          65.0034   92.6267   11.1216 C.ar    1  UNL1       -0.0194
     35 C          63.8292   91.7225   11.3529 C.ar    1  UNL1       -0.0067
     36 C          63.8936   90.6666   12.4164 C.ar    1  UNL1        0.0004
     37 C          65.1323   90.5150   13.2486 C.ar    1  UNL1        0.0343
     38 C          66.3066   91.4192   13.0172 C.ar    1  UNL1        0.1380
     39 C          66.2421   92.4750   11.9537 C.ar    1  UNL1        0.0326
     40 O          67.5454   91.2675   13.8494 O.3     1  UNL1       -0.4754
     41 C          68.2015   92.4777   14.4451 C.3     1  UNL1        0.2069
     42 C          67.4559   93.3252   15.4331 C.3     1  UNL1        0.0661
     43 C          66.6203   92.6774   16.4970 C.3     1  UNL1        0.0949
     44 N          65.1407   92.9199   16.5399 N.3     1  UNL1       -0.1831
     45 H          64.9187   93.5261   15.7502 H       1  UNL1        0.1484
     46 S          64.1888   91.7622   16.4782 S.O2    1  UNL1        0.0426
     47 C          63.2369   90.6046   16.4165 C.3     1  UNL1        0.1957
     48 O          63.0779   92.6503   16.9550 O.2     1  UNL1       -0.1575
     49 O          65.2996   90.8742   16.0015 O.2     1  UNL1       -0.1575
     50 C          64.9389   93.6825   10.0581 C.3     1  UNL1        0.0290
     51 C          65.9508   94.7895   10.0380 C.3     1  UNL1        0.0367
     52 C          67.1266   94.7142    9.1096 C.3     1  UNL1        0.1426
     53 C          68.6303   92.5955    9.1132 C.3     1  UNL1        0.1741
     54 O          68.3793   94.0110    9.5414 O.3     1  UNL1       -0.3511
@<TRIPOS>BOND
     1    53    54    1
     2    54    52    1
     3    52    51    1
     4    51    50    1
     5    50    34    1
     6    34    35   ar
     7    35    36   ar
     8    36    33    1
     9    33     1    1
    10     1     2   am
    11     2     3    2
    12     4     2    1
    13     4     5    1
    14     5     6    1
    15     6     7    1
    16     7     8    1
    17     8     9    1
    18     9    11    1
    19    11    12   ar
    20    12    13   ar
    21    13    14   ar
    22    14    17    1
    23    17    18    1
    24    18    19    1
    25    19    20    1
    26    20    21    1
    27    21    22   ar
    28    22    23    1
    29    22    24   ar
    30    24    25   ar
    31    25    26    1
    32    25    27   ar
    33    27    28   ar
    34    28    29    1
    35    14    15   ar
    36    15    16   ar
    37     1    30    1
    38    30    31    1
    39    31    32    1
    40    36    37   ar
    41    37    38   ar
    42    38    40    1
    43    40    41    1
    44    41    42    1
    45    42    43    1
    46    43    44    1
    47    44    46    1
    48    46    47    1
    49    46    48    2
    50    46    49    2
    51    38    39   ar
    52    39    34   ar
    53     9     4    1
    54    16    11   ar
    55    32    30    1
    56    28    21   ar
    57     6    10    1
    58    44    45    1
@<TRIPOS>MOLECULE
*****
 54 58 0 0 0
SMALL
GASTEIGER

@<TRIPOS>ATOM
      1 N          61.6163   90.0924   10.7972 N.am    1  UNL1       -0.2770
      2 C          61.8795   89.3049    9.5480 C.2     1  UNL1        0.2270
      3 O          63.2763   89.1921    9.0128 O.2     1  UNL1       -0.2748
      4 C          60.7460   88.6302    8.8339 C.3     1  UNL1        0.0964
      5 C          59.8205   89.4333    7.9688 C.3     1  UNL1        0.0780
      6 N          58.6869   88.7587    7.2548 N.3     1  UNL1       -0.2970
      7 C          58.4789   87.2809    7.4058 C.3     1  UNL1        0.0689
      8 C          59.4044   86.4777    8.2709 C.3     1  UNL1        0.0220
      9 C          60.5380   87.1524    8.9850 C.3     1  UNL1        0.0337
     10 H          58.8182   88.9373    6.2591 H       1  UNL1        0.1233
     11 C          61.4635   86.3492    9.8501 C.ar    1  UNL1       -0.0217
     12 C          62.5713   85.5532    9.2263 C.ar    1  UNL1       -0.0012
     13 C          63.4968   84.7501   10.0914 C.ar    1  UNL1        0.0366
     14 C          63.3145   84.7430   11.5802 C.ar    1  UNL1        0.1387
     15 C          62.2067   85.5390   12.2040 C.ar    1  UNL1        0.0366
     16 C          61.2812   86.3421   11.3389 C.ar    1  UNL1       -0.0012
     17 O          64.2400   83.9399   12.4453 O.3     1  UNL1       -0.4714
     18 C          65.0608   82.8374   11.8443 C.3     1  UNL1        0.2525
     19 C          64.6399   81.4084   12.0190 C.3     1  UNL1        0.2525
     20 O          64.2139   80.9116   13.3687 O.3     1  UNL1       -0.4697
     21 C          62.7595   80.6905   13.6618 C.ar    1  UNL1        0.1596
     22 C          62.0994   79.4062   13.2557 C.ar    1  UNL1        0.0921
     23 CL         62.8937   78.3431   12.5565 Cl      1  UNL1       -0.0791
     24 C          60.6450   79.1851   13.5488 C.ar    1  UNL1        0.0103
     25 C          59.8507   80.2482   14.2480 C.ar    1  UNL1       -0.0200
     26 C          58.3964   80.0271   14.5411 C.3     1  UNL1        0.0311
     27 C          60.5109   81.5325   14.6541 C.ar    1  UNL1        0.0103
     28 C          61.9652   81.7536   14.3610 C.ar    1  UNL1        0.0921
     29 CL         62.6254   83.0379   14.7671 Cl      1  UNL1       -0.0791
     30 C          60.2196   90.2052   11.3324 C.3     1  UNL1        0.0758
     31 C          58.9645   91.0026   11.5296 C.3     1  UNL1        0.0215
     32 C          59.0555   89.6033   12.0621 C.3     1  UNL1        0.0215
     33 C          62.7499   90.7670   11.5113 C.3     1  UNL1        0.1201
     34 C          64.0065   88.2278   14.2904 C.ar    1  UNL1       -0.0194
     35 C          63.5219   88.7652   12.9765 C.ar    1  UNL1       -0.0067
     36 C          63.2345   90.2296   12.8253 C.ar    1  UNL1        0.0004
     37 C          63.4317   91.1566   13.9879 C.ar    1  UNL1        0.0343
     38 C          63.9162   90.6192   15.3018 C.ar    1  UNL1        0.1380
     39 C          64.2036   89.1548   15.4530 C.ar    1  UNL1        0.0326
     40 O          64.1134   91.5462   16.4645 O.3     1  UNL1       -0.4754
     41 C          65.2114   92.5676   16.4315 C.3     1  UNL1        0.2069
     42 C          66.4214   92.3407   15.5745 C.3     1  UNL1        0.0661
     43 C          66.8008   93.3486   14.5305 C.3     1  UNL1        0.0949
     44 N          65.7893   93.7957   13.5172 N.3     1  UNL1       -0.1831
     45 H          65.4621   94.7152   13.8136 H       1  UNL1        0.1484
     46 S          66.1779   93.9191   12.0736 S.O2    1  UNL1        0.0426
     47 C          66.5664   94.0424   10.6300 C.3     1  UNL1        0.1957
     48 O          66.1669   95.4138   12.1984 O.2     1  UNL1       -0.1575
     49 O          66.1888   92.4243   11.9488 O.2     1  UNL1       -0.1575
     50 C          64.2939   86.7634   14.4416 C.3     1  UNL1        0.0290
     51 C          64.2731   86.1315   15.8019 C.3     1  UNL1        0.0367
     52 C          63.0096   85.5128   16.3222 C.3     1  UNL1        0.1426
     53 C          62.6005   86.9365   18.4567 C.3     1  UNL1        0.1741
     54 O          62.0865   86.3123   17.1933 O.3     1  UNL1       -0.3511
@<TRIPOS>BOND
     1    53    54    1
     2    54    52    1
     3    52    51    1
     4    51    50    1
     5    50    34    1
     6    34    35   ar
     7    35    36   ar
     8    36    33    1
     9    33     1    1
    10     1     2   am
    11     2     3    2
    12     4     2    1
    13     4     5    1
    14     5     6    1
    15     6     7    1
    16     7     8    1
    17     8     9    1
    18     9    11    1
    19    11    12   ar
    20    12    13   ar
    21    13    14   ar
    22    14    17    1
    23    17    18    1
    24    18    19    1
    25    19    20    1
    26    20    21    1
    27    21    22   ar
    28    22    23    1
    29    22    24   ar
    30    24    25   ar
    31    25    26    1
    32    25    27   ar
    33    27    28   ar
    34    28    29    1
    35    14    15   ar
    36    15    16   ar
    37     1    30    1
    38    30    31    1
    39    31    32    1
    40    36    37   ar
    41    37    38   ar
    42    38    40    1
    43    40    41    1
    44    41    42    1
    45    42    43    1
    46    43    44    1
    47    44    46    1
    48    46    47    1
    49    46    48    2
    50    46    49    2
    51    38    39   ar
    52    39    34   ar
    53     9     4    1
    54    16    11   ar
    55    32    30    1
    56    28    21   ar
    57     6    10    1
    58    44    45    1
@<TRIPOS>MOLECULE
*****
 54 58 0 0 0
SMALL
GASTEIGER

@<TRIPOS>ATOM
      1 N          62.6183   85.2137    9.3200 N.am    1  UNL1       -0.2770
      2 C          61.6757   86.1997    9.9440 C.2     1  UNL1        0.2270
      3 O          61.7747   86.5086   11.4085 O.2     1  UNL1       -0.2748
      4 C          60.6340   86.8768    9.1035 C.3     1  UNL1        0.0964
      5 C          59.7478   86.0631    8.2078 C.3     1  UNL1        0.0780
      6 N          58.7061   86.7402    7.3673 N.3     1  UNL1       -0.2970
      7 C          58.5507   88.2310    7.4224 C.3     1  UNL1        0.0689
      8 C          59.4370   89.0449    8.3181 C.3     1  UNL1        0.0220
      9 C          60.4787   88.3678    9.1586 C.3     1  UNL1        0.0337
     10 H          57.8066   86.3403    7.6344 H       1  UNL1        0.1233
     11 C          61.3649   89.1816   10.0543 C.ar    1  UNL1       -0.0217
     12 C          61.0616   89.2813   11.5200 C.ar    1  UNL1       -0.0012
     13 C          61.9478   90.0951   12.4156 C.ar    1  UNL1        0.0366
     14 C          63.1375   90.8092   11.8457 C.ar    1  UNL1        0.1387
     15 C          63.4408   90.7095   10.3801 C.ar    1  UNL1        0.0366
     16 C          62.5546   89.8957    9.4844 C.ar    1  UNL1       -0.0012
     17 O          64.0237   91.6230   12.7414 O.3     1  UNL1       -0.4714
     18 C          65.2241   92.3218   12.1748 C.3     1  UNL1        0.2525
     19 C          66.0706   93.1919   13.0558 C.3     1  UNL1        0.2525
     20 O          67.0962   94.1023   12.4481 O.3     1  UNL1       -0.4697
     21 C          66.8365   94.7413   11.1160 C.ar    1  UNL1        0.1596
     22 C          67.1684   94.0036    9.8528 C.ar    1  UNL1        0.0921
     23 CL         67.7599   92.6269    9.9216 Cl      1  UNL1       -0.0791
     24 C          66.9088   94.6426    8.5208 C.ar    1  UNL1        0.0103
     25 C          66.3172   96.0194    8.4520 C.ar    1  UNL1       -0.0200
     26 C          66.0576   96.6584    7.1200 C.3     1  UNL1        0.0311
     27 C          65.9854   96.7571    9.7152 C.ar    1  UNL1        0.0103
     28 C          66.2450   96.1180   11.0472 C.ar    1  UNL1        0.0921
     29 CL         65.9131   96.8557   12.3105 Cl      1  UNL1       -0.0791
     30 C          62.5193   84.9049    7.8556 C.3     1  UNL1        0.0758
     31 C          63.1556   84.8201    6.4999 C.3     1  UNL1        0.0215
     32 C          61.7114   84.4546    6.6746 C.3     1  UNL1        0.0215
     33 C          63.6599   84.5366   10.1606 C.3     1  UNL1        0.1201
     34 C          63.6157   84.4916   14.1287 C.ar    1  UNL1       -0.0194
     35 C          63.9346   84.8939   12.7193 C.ar    1  UNL1       -0.0067
     36 C          63.3411   84.1343   11.5701 C.ar    1  UNL1        0.0004
     37 C          62.4287   82.9725   11.8302 C.ar    1  UNL1        0.0343
     38 C          62.1099   82.5702   13.2396 C.ar    1  UNL1        0.1380
     39 C          62.7034   83.3298   14.3889 C.ar    1  UNL1        0.0326
     40 O          61.1975   81.4083   13.4998 O.3     1  UNL1       -0.4754
     41 C          61.7559   80.0181   13.5738 C.3     1  UNL1        0.2069
     42 C          62.9030   79.6227   12.6918 C.3     1  UNL1        0.0661
     43 C          62.6957   79.4729   11.2138 C.3     1  UNL1        0.0949
     44 N          62.4111   78.1209   10.6296 N.3     1  UNL1       -0.1831
     45 H          61.6213   78.2350    9.9943 H       1  UNL1        0.1484
     46 S          63.4786   77.3935    9.8672 S.O2    1  UNL1        0.0426
     47 C          64.5461   76.6660    9.1048 C.3     1  UNL1        0.1957
     48 O          63.2292   76.1647   10.6905 O.2     1  UNL1       -0.1575
     49 O          63.7280   78.6222    9.0439 O.2     1  UNL1       -0.1575
     50 C          64.2092   85.2512   15.2780 C.3     1  UNL1        0.0290
     51 C          64.9842   86.5102   15.0246 C.3     1  UNL1        0.0367
     52 C          64.2657   87.8211   14.9010 C.3     1  UNL1        0.1426
     53 C          63.1356   89.7145   16.2750 C.3     1  UNL1        0.1741
     54 O          63.3090   88.2559   15.9714 O.3     1  UNL1       -0.3511
@<TRIPOS>BOND
     1    53    54    1
     2    54    52    1
     3    52    51    1
     4    51    50    1
     5    50    34    1
     6    34    35   ar
     7    35    36   ar
     8    36    33    1
     9    33     1    1
    10     1     2   am
    11     2     3    2
    12     4     2    1
    13     4     5    1
    14     5     6    1
    15     6     7    1
    16     7     8    1
    17     8     9    1
    18     9    11    1
    19    11    12   ar
    20    12    13   ar
    21    13    14   ar
    22    14    17    1
    23    17    18    1
    24    18    19    1
    25    19    20    1
    26    20    21    1
    27    21    22   ar
    28    22    23    1
    29    22    24   ar
    30    24    25   ar
    31    25    26    1
    32    25    27   ar
    33    27    28   ar
    34    28    29    1
    35    14    15   ar
    36    15    16   ar
    37     1    30    1
    38    30    31    1
    39    31    32    1
    40    36    37   ar
    41    37    38   ar
    42    38    40    1
    43    40    41    1
    44    41    42    1
    45    42    43    1
    46    43    44    1
    47    44    46    1
    48    46    47    1
    49    46    48    2
    50    46    49    2
    51    38    39   ar
    52    39    34   ar
    53     9     4    1
    54    16    11   ar
    55    32    30    1
    56    28    21   ar
    57     6    10    1
    58    44    45    1
