@<TRIPOS>MOLECULE
*****
 41 46 0 0 0
SMALL
GASTEIGER

@<TRIPOS>ATOM
      1 C          63.1022   89.1343   13.0483 C.ar    1  UNL1        0.2020
      2 N          62.3872   88.0726   12.2663 N.ar    1  UNL1       -0.1802
      3 C          62.6670   86.6242   12.5384 C.ar    1  UNL1        0.2299
      4 C          63.6618   86.2376   13.5924 C.ar    1  UNL1        0.0886
      5 C          64.1407   84.9020   14.0790 C.ar    1  UNL1        0.0267
      6 C          65.1516   85.1382   15.1616 C.ar    1  UNL1        0.1007
      7 N          65.2975   86.6199   15.3442 N.ar    1  UNL1       -0.2267
      8 C          64.3767   87.2994   14.3744 C.ar    1  UNL1        0.1471
      9 N          64.0969   88.7477   14.1024 N.ar    1  UNL1       -0.3117
     10 H          64.5662   89.4446   14.6157 H       1  UNL1        0.1700
     11 C          63.6881   83.5648   13.5718 C.ar    1  UNL1        0.0049
     12 C          62.9635   82.6220   14.4861 C.ar    1  UNL1        0.0018
     13 C          62.5109   81.2848   13.9789 C.ar    1  UNL1        0.0223
     14 C          62.7829   80.8905   12.5574 C.ar    1  UNL1        0.1185
     15 N          62.4599   79.6485   11.7810 N.ar    1  UNL1       -0.2121
     16 C          62.9848   79.8237   10.3868 C.ar    1  UNL1        0.2062
     17 C          62.8806   78.8241    9.2733 C.3     1  UNL1        0.0950
     18 O          63.6323   81.1741   10.3016 O.2     1  UNL1       -0.4384
     19 C          63.5075   81.8334   11.6431 C.ar    1  UNL1        0.1644
     20 C          63.9601   83.1705   12.1504 C.ar    1  UNL1        0.0392
     21 N          62.8224   90.5827   12.7763 N.pl3   1  UNL1       -0.2816
     22 H          61.9659   90.9795   13.0558 H       1  UNL1        0.1551
     23 C          65.8982   93.1137   10.6827 C.ar    1  UNL1        0.0565
     24 C          64.7789   92.4934    9.9003 C.ar    1  UNL1        0.0060
     25 C          63.7535   91.6497   10.5982 C.ar    1  UNL1        0.0179
     26 C          63.8476   91.4263   12.0784 C.ar    1  UNL1        0.0849
     27 C          64.9670   92.0467   12.8609 C.ar    1  UNL1        0.1522
     28 C          65.9923   92.8904   12.1630 C.ar    1  UNL1        0.0427
     29 C          67.5252   96.0299    8.5382 C.3     1  UNL1        0.1109
     30 N          66.4999   95.1862    9.2360 N.am    1  UNL1       -0.2992
     31 C          66.9235   93.9575    9.9849 C.2     1  UNL1        0.2460
     32 O          68.3723   93.5724   10.0359 O.2     1  UNL1       -0.2701
     33 H          65.5490   95.4389    9.2025 H       1  UNL1        0.1498
     34 O          65.0611   91.8234   14.3412 O.3     1  UNL1       -0.4702
     35 C          66.1504   92.4853   15.1318 C.3     1  UNL1        0.2525
     36 O          61.9520   85.5625   11.7564 O.3     1  UNL1       -0.4639
     37 C          61.9206   85.6276   10.2581 C.3     1  UNL1        0.1675
     38 C          60.8413   86.2530    9.4252 C.3     1  UNL1        0.0436
     39 C          61.2166   86.0906    7.9821 C.3     1  UNL1        0.0038
     40 C          62.5280   85.3648    7.9230 C.3     1  UNL1        0.0038
     41 C          62.9631   85.0786    9.3297 C.3     1  UNL1        0.0436
@<TRIPOS>BOND
     1    29    30    1
     2    30    31   am
     3    31    32    2
     4    31    23    1
     5    23    24   ar
     6    24    25   ar
     7    25    26   ar
     8    26    21    1
     9    21     1    1
    10     1     2   ar
    11     2     3   ar
    12     3    36    1
    13    36    37    1
    14    37    38    1
    15    38    39    1
    16    39    40    1
    17    40    41    1
    18     3     4   ar
    19     4     5   ar
    20     5    11    1
    21    11    12   ar
    22    12    13   ar
    23    13    14   ar
    24    14    15   ar
    25    15    16   ar
    26    16    17    1
    27    16    18   ar
    28    18    19   ar
    29    19    20   ar
    30     5     6   ar
    31     6     7   ar
    32     7     8   ar
    33     8     9   ar
    34    26    27   ar
    35    27    34    1
    36    34    35    1
    37    27    28   ar
    38    28    23   ar
    39     9     1   ar
    40    41    37    1
    41     8     4    1
    42    20    11   ar
    43    19    14   ar
    44    30    33    1
    45    21    22    1
    46     9    10    1
@<TRIPOS>MOLECULE
*****
 41 46 0 0 0
SMALL
GASTEIGER

@<TRIPOS>ATOM
      1 C          63.4043   88.8319   13.6470 C.ar    1  UNL1        0.2020
      2 N          63.0956   88.1113   12.3682 N.ar    1  UNL1       -0.1802
      3 C          63.2504   86.6213   12.2907 C.ar    1  UNL1        0.2299
      4 C          63.7137   85.8519   13.4920 C.ar    1  UNL1        0.0886
      5 C          63.9578   84.3886   13.7140 C.ar    1  UNL1        0.0267
      6 C          64.4172   84.2048   15.1300 C.ar    1  UNL1        0.1007
      7 N          64.4571   85.5545   15.7832 N.ar    1  UNL1       -0.2267
      8 C          64.0224   86.5725   14.7709 C.ar    1  UNL1        0.1471
      9 N          63.8677   88.0624   14.8484 N.ar    1  UNL1       -0.3117
     10 H          64.0702   88.5353   15.6878 H       1  UNL1        0.1700
     11 C          63.7745   83.3002   12.6982 C.ar    1  UNL1        0.0049
     12 C          64.0549   83.5712   11.2497 C.ar    1  UNL1        0.0018
     13 C          63.8716   82.4827   10.2340 C.ar    1  UNL1        0.0223
     14 C          63.4079   81.1234   10.6666 C.ar    1  UNL1        0.1185
     15 N          63.1393   79.8631    9.8988 N.ar    1  UNL1       -0.2121
     16 C          62.6928   78.8133   10.8727 C.ar    1  UNL1        0.2062
     17 C          62.3193   77.4001   10.5361 C.3     1  UNL1        0.0950
     18 O          62.6855   79.4247   12.2424 O.2     1  UNL1       -0.4384
     19 C          63.1274   80.8525   12.1150 C.ar    1  UNL1        0.1644
     20 C          63.3108   81.9409   13.1308 C.ar    1  UNL1        0.0392
     21 N          63.2496   90.3219   13.7246 N.pl3   1  UNL1       -0.2816
     22 H          62.5766   90.7163   14.3253 H       1  UNL1        0.1551
     23 C          65.8614   92.9888   11.2115 C.ar    1  UNL1        0.0565
     24 C          66.2805   92.6265   12.6054 C.ar    1  UNL1        0.0060
     25 C          65.4099   91.7374   13.4431 C.ar    1  UNL1        0.0179
     26 C          64.1202   91.2108   12.8869 C.ar    1  UNL1        0.0849
     27 C          63.7011   91.5733   11.4929 C.ar    1  UNL1        0.1522
     28 C          64.5717   92.4622   10.6552 C.ar    1  UNL1        0.0427
     29 C          67.0282   96.0011    8.9061 C.3     1  UNL1        0.1109
     30 N          66.1577   95.1121    9.7438 N.am    1  UNL1       -0.2992
     31 C          66.7320   93.8779   10.3737 C.2     1  UNL1        0.2460
     32 O          68.1768   93.5326   10.1659 O.2     1  UNL1       -0.2701
     33 H          65.2093   95.3387    9.8802 H       1  UNL1        0.1498
     34 O          62.4114   91.0466   10.9367 O.3     1  UNL1       -0.4702
     35 C          62.4267   90.1110    9.7644 C.3     1  UNL1        0.2525
     36 O          62.9417   85.9007   11.0118 O.3     1  UNL1       -0.4639
     37 C          61.8032   86.3585   10.1490 C.3     1  UNL1        0.1675
     38 C          60.5802   87.0896   10.6178 C.3     1  UNL1        0.0436
     39 C          59.7090   87.3484    9.4244 C.3     1  UNL1        0.0038
     40 C          60.3936   86.7772    8.2181 C.3     1  UNL1        0.0038
     41 C          61.6879   86.1654    8.6659 C.3     1  UNL1        0.0436
@<TRIPOS>BOND
     1    29    30    1
     2    30    31   am
     3    31    32    2
     4    31    23    1
     5    23    24   ar
     6    24    25   ar
     7    25    26   ar
     8    26    21    1
     9    21     1    1
    10     1     2   ar
    11     2     3   ar
    12     3    36    1
    13    36    37    1
    14    37    38    1
    15    38    39    1
    16    39    40    1
    17    40    41    1
    18     3     4   ar
    19     4     5   ar
    20     5    11    1
    21    11    12   ar
    22    12    13   ar
    23    13    14   ar
    24    14    15   ar
    25    15    16   ar
    26    16    17    1
    27    16    18   ar
    28    18    19   ar
    29    19    20   ar
    30     5     6   ar
    31     6     7   ar
    32     7     8   ar
    33     8     9   ar
    34    26    27   ar
    35    27    34    1
    36    34    35    1
    37    27    28   ar
    38    28    23   ar
    39     9     1   ar
    40    41    37    1
    41     8     4    1
    42    20    11   ar
    43    19    14   ar
    44    30    33    1
    45    21    22    1
    46     9    10    1
@<TRIPOS>MOLECULE
*****
 41 46 0 0 0
SMALL
GASTEIGER

@<TRIPOS>ATOM
      1 C          62.8323   89.8839   12.2374 C.ar    1  UNL1        0.2020
      2 N          63.3849   88.6943   12.9651 N.ar    1  UNL1       -0.1802
      3 C          63.2256   87.3200   12.3855 C.ar    1  UNL1        0.2299
      4 C          62.5138   87.1353   11.0782 C.ar    1  UNL1        0.0886
      5 C          62.2062   85.9117   10.2669 C.ar    1  UNL1        0.0267
      6 C          61.4635   86.3450    9.0378 C.ar    1  UNL1        0.1007
      7 N          61.3121   87.8364    9.0894 N.ar    1  UNL1       -0.2267
      8 C          61.9612   88.3249   10.3504 C.ar    1  UNL1        0.1471
      9 N          62.1205   89.6991   10.9300 N.ar    1  UNL1       -0.3117
     10 H          61.7578   90.4799   10.4524 H       1  UNL1        0.1700
     11 C          62.5763   84.5022   10.6224 C.ar    1  UNL1        0.0049
     12 C          63.6175   83.7759    9.8235 C.ar    1  UNL1        0.0018
     13 C          63.9876   82.3664   10.1791 C.ar    1  UNL1        0.0223
     14 C          63.3164   81.6832   11.3335 C.ar    1  UNL1        0.1185
     15 N          63.4729   80.3097   11.9157 N.ar    1  UNL1       -0.2121
     16 C          62.5283   80.1871   13.0745 C.ar    1  UNL1        0.2062
     17 C          62.3545   78.9789   13.9463 C.3     1  UNL1        0.0950
     18 O          61.7881   81.4848   13.2084 O.2     1  UNL1       -0.4384
     19 C          62.2752   82.4094   12.1324 C.ar    1  UNL1        0.1644
     20 C          61.9051   83.8190   11.7769 C.ar    1  UNL1        0.0392
     21 N          62.9916   91.2582   12.8170 N.pl3   1  UNL1       -0.2816
     22 H          62.2172   91.8640   12.8673 H       1  UNL1        0.1551
     23 C          67.0091   92.6119   14.3259 C.ar    1  UNL1        0.0565
     24 C          66.7554   92.5164   12.8507 C.ar    1  UNL1        0.0060
     25 C          65.4162   92.0652   12.3476 C.ar    1  UNL1        0.0179
     26 C          64.3308   91.7094   13.3199 C.ar    1  UNL1        0.0849
     27 C          64.5846   91.8049   14.7953 C.ar    1  UNL1        0.1522
     28 C          65.9237   92.2561   15.2982 C.ar    1  UNL1        0.0427
     29 C          69.7718   94.5074   16.4531 C.3     1  UNL1        0.1109
     30 N          68.4327   94.0561   15.9501 N.am    1  UNL1       -0.2992
     31 C          68.3483   93.0631   14.8290 C.2     1  UNL1        0.2460
     32 O          69.6031   92.5213   14.2110 O.2     1  UNL1       -0.2701
     33 H          67.6091   94.4117   16.3557 H       1  UNL1        0.1498
     34 O          63.4992   91.4492   15.7676 O.3     1  UNL1       -0.4702
     35 C          63.4408   90.0702   16.3549 C.3     1  UNL1        0.2525
     36 O          63.7782   86.1304   13.1132 O.3     1  UNL1       -0.4639
     37 C          63.4111   85.8920   14.5480 C.3     1  UNL1        0.1675
     38 C          63.9258   86.6600   15.7291 C.3     1  UNL1        0.0436
     39 C          63.2977   86.0863   16.9646 C.3     1  UNL1        0.0038
     40 C          62.3948   84.9636   16.5470 C.3     1  UNL1        0.0038
     41 C          62.4649   84.8435   15.0534 C.3     1  UNL1        0.0436
@<TRIPOS>BOND
     1    29    30    1
     2    30    31   am
     3    31    32    2
     4    31    23    1
     5    23    24   ar
     6    24    25   ar
     7    25    26   ar
     8    26    21    1
     9    21     1    1
    10     1     2   ar
    11     2     3   ar
    12     3    36    1
    13    36    37    1
    14    37    38    1
    15    38    39    1
    16    39    40    1
    17    40    41    1
    18     3     4   ar
    19     4     5   ar
    20     5    11    1
    21    11    12   ar
    22    12    13   ar
    23    13    14   ar
    24    14    15   ar
    25    15    16   ar
    26    16    17    1
    27    16    18   ar
    28    18    19   ar
    29    19    20   ar
    30     5     6   ar
    31     6     7   ar
    32     7     8   ar
    33     8     9   ar
    34    26    27   ar
    35    27    34    1
    36    34    35    1
    37    27    28   ar
    38    28    23   ar
    39     9     1   ar
    40    41    37    1
    41     8     4    1
    42    20    11   ar
    43    19    14   ar
    44    30    33    1
    45    21    22    1
    46     9    10    1
@<TRIPOS>MOLECULE
*****
 41 46 0 0 0
SMALL
GASTEIGER

@<TRIPOS>ATOM
      1 C          62.9270   89.9190   12.3309 C.ar    1  UNL1        0.2020
      2 N          63.4618   88.7156   13.0491 N.ar    1  UNL1       -0.1802
      3 C          63.2792   87.3481   12.4602 C.ar    1  UNL1        0.2299
      4 C          62.5619   87.1841   11.1531 C.ar    1  UNL1        0.0886
      5 C          62.2329   85.9713   10.3340 C.ar    1  UNL1        0.0267
      6 C          61.4949   86.4251    9.1095 C.ar    1  UNL1        0.1007
      7 N          61.3677   87.9184    9.1719 N.ar    1  UNL1       -0.2267
      8 C          62.0271   88.3875   10.4349 C.ar    1  UNL1        0.1471
      9 N          62.2096   89.7549   11.0238 N.ar    1  UNL1       -0.3117
     10 H          61.8586   90.5447   10.5523 H       1  UNL1        0.1700
     11 C          62.5810   84.5536   10.6788 C.ar    1  UNL1        0.0049
     12 C          63.5974   83.8111    9.8629 C.ar    1  UNL1        0.0018
     13 C          63.9454   82.3933   10.2078 C.ar    1  UNL1        0.0223
     14 C          63.2771   81.7181   11.3686 C.ar    1  UNL1        0.1185
     15 N          63.4153   80.3394   11.9432 N.ar    1  UNL1       -0.2121
     16 C          62.4843   80.2298   13.1142 C.ar    1  UNL1        0.2062
     17 C          62.2994   79.0215   13.9834 C.3     1  UNL1        0.0950
     18 O          61.7707   81.5408   13.2633 O.2     1  UNL1       -0.4384
     19 C          62.2607   82.4605   12.1845 C.ar    1  UNL1        0.1644
     20 C          61.9127   83.8783   11.8396 C.ar    1  UNL1        0.0392
     21 N          63.1096   91.2864   12.9197 N.pl3   1  UNL1       -0.2816
     22 H          62.3404   91.8961   12.9964 H       1  UNL1        0.1551
     23 C          67.1733   92.6021   14.3357 C.ar    1  UNL1        0.0565
     24 C          66.2417   91.8998   15.2785 C.ar    1  UNL1        0.0060
     25 C          64.8871   91.4612   14.8065 C.ar    1  UNL1        0.0179
     26 C          64.4641   91.7249   13.3917 C.ar    1  UNL1        0.0849
     27 C          65.3958   92.4273   12.4490 C.ar    1  UNL1        0.1522
     28 C          66.7504   92.8658   12.9210 C.ar    1  UNL1        0.0427
     29 C          70.0020   94.4720   16.3978 C.3     1  UNL1        0.1109
     30 N          68.6474   94.0334   15.9258 N.am    1  UNL1       -0.2992
     31 C          68.5279   93.0406   14.8077 C.2     1  UNL1        0.2460
     32 O          69.7630   92.4865   14.1616 O.2     1  UNL1       -0.2701
     33 H          67.8368   94.3971   16.3499 H       1  UNL1        0.1498
     34 O          64.9729   92.6910   11.0342 O.3     1  UNL1       -0.4702
     35 C          65.8056   93.5763   10.1551 C.3     1  UNL1        0.2525
     36 O          63.8140   86.1447   13.1784 O.3     1  UNL1       -0.4639
     37 C          63.4573   85.9096   14.6164 C.3     1  UNL1        0.1675
     38 C          63.8077   86.8030   15.7691 C.3     1  UNL1        0.0436
     39 C          63.2546   86.1853   17.0191 C.3     1  UNL1        0.0038
     40 C          62.5624   84.9100   16.6389 C.3     1  UNL1        0.0038
     41 C          62.6877   84.7396   15.1539 C.3     1  UNL1        0.0436
@<TRIPOS>BOND
     1    29    30    1
     2    30    31   am
     3    31    32    2
     4    31    23    1
     5    23    24   ar
     6    24    25   ar
     7    25    26   ar
     8    26    21    1
     9    21     1    1
    10     1     2   ar
    11     2     3   ar
    12     3    36    1
    13    36    37    1
    14    37    38    1
    15    38    39    1
    16    39    40    1
    17    40    41    1
    18     3     4   ar
    19     4     5   ar
    20     5    11    1
    21    11    12   ar
    22    12    13   ar
    23    13    14   ar
    24    14    15   ar
    25    15    16   ar
    26    16    17    1
    27    16    18   ar
    28    18    19   ar
    29    19    20   ar
    30     5     6   ar
    31     6     7   ar
    32     7     8   ar
    33     8     9   ar
    34    26    27   ar
    35    27    34    1
    36    34    35    1
    37    27    28   ar
    38    28    23   ar
    39     9     1   ar
    40    41    37    1
    41     8     4    1
    42    20    11   ar
    43    19    14   ar
    44    30    33    1
    45    21    22    1
    46     9    10    1
@<TRIPOS>MOLECULE
*****
 41 46 0 0 0
SMALL
GASTEIGER

@<TRIPOS>ATOM
      1 C          59.5974   89.3192    7.6782 C.ar    1  UNL1        0.2020
      2 N          59.7055   87.8323    7.5128 N.ar    1  UNL1       -0.1802
      3 C          60.5403   87.0303    8.4668 C.ar    1  UNL1        0.2299
      4 C          61.2669   87.7153    9.5861 C.ar    1  UNL1        0.0886
      5 C          62.1577   87.1916   10.6734 C.ar    1  UNL1        0.0267
      6 C          62.6001   88.3548   11.5107 C.ar    1  UNL1        0.1007
      7 N          61.9828   89.5974   10.9409 N.ar    1  UNL1       -0.2267
      8 C          61.1588   89.2022    9.7514 C.ar    1  UNL1        0.1471
      9 N          60.3241   90.0042    8.7975 N.ar    1  UNL1       -0.3117
     10 H          60.2531   90.9801    8.9060 H       1  UNL1        0.1700
     11 C          62.5390   85.7565   10.8860 C.ar    1  UNL1        0.0049
     12 C          63.3121   85.0217    9.8313 C.ar    1  UNL1        0.0018
     13 C          63.6934   83.5867   10.0440 C.ar    1  UNL1        0.0223
     14 C          63.3018   82.8864   11.3114 C.ar    1  UNL1        0.1185
     15 N          63.5349   81.4869   11.7981 N.ar    1  UNL1       -0.2121
     16 C          62.9061   81.3567   13.1536 C.ar    1  UNL1        0.2062
     17 C          62.9001   80.1240   14.0081 C.3     1  UNL1        0.0950
     18 O          62.2841   82.6758   13.5047 O.2     1  UNL1       -0.4384
     19 C          62.5287   83.6212   12.3661 C.ar    1  UNL1        0.1644
     20 C          62.1474   85.0563   12.1534 C.ar    1  UNL1        0.0392
     21 N          58.7626   90.1212    6.7242 N.pl3   1  UNL1       -0.2816
     22 H          57.7856   90.1611    6.8387 H       1  UNL1        0.1551
     23 C          60.7242   92.3450    3.3394 C.ar    1  UNL1        0.0565
     24 C          61.5056   91.3340    4.1251 C.ar    1  UNL1        0.0060
     25 C          60.8517   90.5927    5.2535 C.ar    1  UNL1        0.0179
     26 C          59.4165   90.8624    5.5960 C.ar    1  UNL1        0.0849
     27 C          58.6351   91.8734    4.8102 C.ar    1  UNL1        0.1522
     28 C          59.2889   92.6147    3.6820 C.ar    1  UNL1        0.0427
     29 C          63.4387   93.4950    0.6826 C.3     1  UNL1        0.1109
     30 N          62.7849   92.7537    1.8108 N.am    1  UNL1       -0.2992
     31 C          61.3780   93.0863    2.2111 C.2     1  UNL1        0.2460
     32 O          60.6250   94.1600    1.4831 O.2     1  UNL1       -0.2701
     33 H          63.2791   92.0490    2.2887 H       1  UNL1        0.1498
     34 O          57.1998   92.1431    5.1527 O.3     1  UNL1       -0.4702
     35 C          56.1561   91.0996    4.8853 C.3     1  UNL1        0.2525
     36 O          60.6484   85.5434    8.3015 O.3     1  UNL1       -0.4639
     37 C          61.3054   84.9703    7.0809 C.3     1  UNL1        0.1675
     38 C          62.7747   84.9894    6.7793 C.3     1  UNL1        0.0436
     39 C          62.9858   84.3084    5.4596 C.3     1  UNL1        0.0038
     40 C          61.6471   83.8684    4.9455 C.3     1  UNL1        0.0038
     41 C          60.6086   84.2775    5.9475 C.3     1  UNL1        0.0436
@<TRIPOS>BOND
     1    29    30    1
     2    30    31   am
     3    31    32    2
     4    31    23    1
     5    23    24   ar
     6    24    25   ar
     7    25    26   ar
     8    26    21    1
     9    21     1    1
    10     1     2   ar
    11     2     3   ar
    12     3    36    1
    13    36    37    1
    14    37    38    1
    15    38    39    1
    16    39    40    1
    17    40    41    1
    18     3     4   ar
    19     4     5   ar
    20     5    11    1
    21    11    12   ar
    22    12    13   ar
    23    13    14   ar
    24    14    15   ar
    25    15    16   ar
    26    16    17    1
    27    16    18   ar
    28    18    19   ar
    29    19    20   ar
    30     5     6   ar
    31     6     7   ar
    32     7     8   ar
    33     8     9   ar
    34    26    27   ar
    35    27    34    1
    36    34    35    1
    37    27    28   ar
    38    28    23   ar
    39     9     1   ar
    40    41    37    1
    41     8     4    1
    42    20    11   ar
    43    19    14   ar
    44    30    33    1
    45    21    22    1
    46     9    10    1
