@<TRIPOS>MOLECULE
*****
 28 30 0 0 0
SMALL
GASTEIGER

@<TRIPOS>ATOM
      1 C          63.7084   90.4163   14.1408 C.ar    1  UNL1        0.0084
      2 C          62.6639   90.1522   13.0972 C.ar    1  UNL1        0.0212
      3 C          62.8263   90.7120   11.7151 C.ar    1  UNL1        0.1523
      4 N          64.0332   91.5357   11.3765 N.ar    1  UNL1       -0.2414
      5 C          65.0778   91.7998   12.4202 C.ar    1  UNL1        0.0848
      6 C          66.2848   92.6236   12.0816 C.ar    1  UNL1        0.0890
      7 C          67.3293   92.8877   13.1252 C.ar    1  UNL1        0.0054
      8 C          67.1669   92.3279   14.5074 C.ar    1  UNL1        0.0000
      9 C          65.9600   91.5041   14.8459 C.ar    1  UNL1        0.0012
     10 C          64.9155   91.2401   13.8023 C.ar    1  UNL1        0.0160
     11 C          61.7817   90.4479   10.6714 C.3     1  UNL1        0.4348
     12 F          60.7371   90.1838    9.6279 F       1  UNL1       -0.1644
     13 F          62.7237   90.9273    9.6071 F       1  UNL1       -0.1644
     14 F          60.8397   89.9684   11.7357 F       1  UNL1       -0.1644
     15 C          66.4472   93.1834   10.6995 C.3     1  UNL1        0.4200
     16 F          66.6095   93.7431    9.3173 F       1  UNL1       -0.1658
     17 F          67.3588   92.0459   10.3459 F       1  UNL1       -0.1658
     18 F          65.5355   94.3208   11.0530 F       1  UNL1       -0.1658
     19 O          63.3013   90.7777   16.6812 O.3     1  UNL1       -0.3787
     20 C          63.5461   89.8565   15.5229 C.3     1  UNL1        0.1470
     21 H          63.2766   91.6946   16.3655 H       1  UNL1        0.2108
     22 C          63.6285   88.3756   15.7469 C.3     1  UNL1        0.0855
     23 C          64.4243   87.5183   14.8080 C.3     1  UNL1        0.0186
     24 C          64.5067   86.0373   15.0319 C.3     1  UNL1        0.0029
     25 C          63.7933   85.4138   16.1947 C.3     1  UNL1        0.0171
     26 C          62.9974   86.2712   17.1336 C.3     1  UNL1        0.0686
     27 N          62.9150   87.7521   16.9097 N.3     1  UNL1       -0.2963
     28 H          63.2788   88.1979   17.7519 H       1  UNL1        0.1233
@<TRIPOS>BOND
     1    20    19    1
     2    20     1    1
     3     1     2   ar
     4     2     3   ar
     5     3    11    1
     6    11    12    1
     7    11    13    1
     8    11    14    1
     9     3     4   ar
    10     4     5   ar
    11     5     6   ar
    12     6    15    1
    13    15    16    1
    14    15    17    1
    15    15    18    1
    16     6     7   ar
    17     7     8   ar
    18     8     9   ar
    19     9    10   ar
    20    20    22    1
    21    22    23    1
    22    23    24    1
    23    24    25    1
    24    25    26    1
    25    26    27    1
    26    10     1   ar
    27    27    22    1
    28    10     5   ar
    29    19    21    1
    30    27    28    1
@<TRIPOS>MOLECULE
*****
 28 30 0 0 0
SMALL
GASTEIGER

@<TRIPOS>ATOM
      1 C          64.9511   91.3576   14.8358 C.ar    1  UNL1        0.0084
      2 C          66.2126   91.8836   15.4538 C.ar    1  UNL1        0.0212
      3 C          67.2324   92.5786   14.6011 C.ar    1  UNL1        0.1523
      4 N          66.9907   92.7477   13.1305 N.ar    1  UNL1       -0.2414
      5 C          65.7291   92.2217   12.5124 C.ar    1  UNL1        0.0848
      6 C          65.4874   92.3908   11.0417 C.ar    1  UNL1        0.0890
      7 C          64.2259   91.8649   10.4237 C.ar    1  UNL1        0.0054
      8 C          63.2061   91.1699   11.2764 C.ar    1  UNL1        0.0000
      9 C          63.4479   91.0008   12.7471 C.ar    1  UNL1        0.0012
     10 C          64.7093   91.5267   13.3651 C.ar    1  UNL1        0.0160
     11 C          68.4939   93.1045   15.2192 C.3     1  UNL1        0.4348
     12 F          69.7554   93.6305   15.8373 F       1  UNL1       -0.1644
     13 F          69.3033   92.3740   14.1891 F       1  UNL1       -0.1644
     14 F          67.6846   93.8351   16.2494 F       1  UNL1       -0.1644
     15 C          66.5071   93.0858   10.1890 C.3     1  UNL1        0.4200
     16 F          67.5269   93.7809    9.3364 F       1  UNL1       -0.1658
     17 F          67.2900   91.8105   10.0858 F       1  UNL1       -0.1658
     18 F          65.7243   94.3612   10.2923 F       1  UNL1       -0.1658
     19 O          62.9740   91.4662   16.5178 O.3     1  UNL1       -0.3787
     20 C          63.9314   90.6626   15.6885 C.3     1  UNL1        0.1470
     21 H          63.1485   92.4115   16.3882 H       1  UNL1        0.2108
     22 C          63.8690   89.1641   15.7118 C.3     1  UNL1        0.0855
     23 C          64.5343   88.3688   14.6279 C.3     1  UNL1        0.0186
     24 C          64.4719   86.8702   14.6513 C.3     1  UNL1        0.0029
     25 C          63.7442   86.1671   15.7586 C.3     1  UNL1        0.0171
     26 C          63.0789   86.9624   16.8425 C.3     1  UNL1        0.0686
     27 N          63.1413   88.4609   16.8191 N.3     1  UNL1       -0.2963
     28 H          63.5823   88.7509   17.6920 H       1  UNL1        0.1233
@<TRIPOS>BOND
     1    20    19    1
     2    20     1    1
     3     1     2   ar
     4     2     3   ar
     5     3    11    1
     6    11    12    1
     7    11    13    1
     8    11    14    1
     9     3     4   ar
    10     4     5   ar
    11     5     6   ar
    12     6    15    1
    13    15    16    1
    14    15    17    1
    15    15    18    1
    16     6     7   ar
    17     7     8   ar
    18     8     9   ar
    19     9    10   ar
    20    20    22    1
    21    22    23    1
    22    23    24    1
    23    24    25    1
    24    25    26    1
    25    26    27    1
    26    10     1   ar
    27    27    22    1
    28    10     5   ar
    29    19    21    1
    30    27    28    1
@<TRIPOS>MOLECULE
*****
 28 30 0 0 0
SMALL
GASTEIGER

@<TRIPOS>ATOM
      1 C          63.1046   90.3088   12.4030 C.ar    1  UNL1        0.0084
      2 C          62.8811   89.7269   13.7672 C.ar    1  UNL1        0.0212
      3 C          63.7805   90.1130   14.9039 C.ar    1  UNL1        0.1523
      4 N          64.9034   91.0810   14.6763 N.ar    1  UNL1       -0.2414
      5 C          65.1270   91.6631   13.3119 C.ar    1  UNL1        0.0848
      6 C          66.2499   92.6312   13.0843 C.ar    1  UNL1        0.0890
      7 C          66.4734   93.2131   11.7200 C.ar    1  UNL1        0.0054
      8 C          65.5740   92.8270   10.5834 C.ar    1  UNL1        0.0000
      9 C          64.4511   91.8589   10.8110 C.ar    1  UNL1        0.0012
     10 C          64.2276   91.2770   12.1753 C.ar    1  UNL1        0.0160
     11 C          63.5570   89.5309   16.2682 C.3     1  UNL1        0.4348
     12 F          63.3335   88.9489   17.6325 F       1  UNL1       -0.1644
     13 F          63.4012   90.9122   16.8320 F       1  UNL1       -0.1644
     14 F          63.7128   88.1497   15.7045 F       1  UNL1       -0.1644
     15 C          67.1493   93.0173   14.2210 C.3     1  UNL1        0.4200
     16 F          68.0487   93.4034   15.3576 F       1  UNL1       -0.1658
     17 F          66.4261   94.3251   14.3490 F       1  UNL1       -0.1658
     18 F          67.8725   91.7094   14.0930 F       1  UNL1       -0.1658
     19 O          61.4161   90.9741   10.5438 O.3     1  UNL1       -0.3787
     20 C          62.2052   89.9227   11.2663 C.3     1  UNL1        0.1470
     21 H          61.6015   91.8427   10.9340 H       1  UNL1        0.2108
     22 C          62.0949   88.4853   10.8522 C.3     1  UNL1        0.0855
     23 C          61.5772   88.1353    9.4885 C.3     1  UNL1        0.0186
     24 C          61.4669   86.6978    9.0744 C.3     1  UNL1        0.0029
     25 C          61.8742   85.6103   10.0238 C.3     1  UNL1        0.0171
     26 C          62.3919   85.9604   11.3875 C.3     1  UNL1        0.0686
     27 N          62.5022   87.3978   11.8016 N.3     1  UNL1       -0.2963
     28 H          63.4813   87.5625   12.0355 H       1  UNL1        0.1233
@<TRIPOS>BOND
     1    20    19    1
     2    20     1    1
     3     1     2   ar
     4     2     3   ar
     5     3    11    1
     6    11    12    1
     7    11    13    1
     8    11    14    1
     9     3     4   ar
    10     4     5   ar
    11     5     6   ar
    12     6    15    1
    13    15    16    1
    14    15    17    1
    15    15    18    1
    16     6     7   ar
    17     7     8   ar
    18     8     9   ar
    19     9    10   ar
    20    20    22    1
    21    22    23    1
    22    23    24    1
    23    24    25    1
    24    25    26    1
    25    26    27    1
    26    10     1   ar
    27    27    22    1
    28    10     5   ar
    29    19    21    1
    30    27    28    1
@<TRIPOS>MOLECULE
*****
 28 30 0 0 0
SMALL
GASTEIGER

@<TRIPOS>ATOM
      1 C          63.8399   89.3218   13.9034 C.ar    1  UNL1        0.0084
      2 C          64.2284   88.0211   14.5416 C.ar    1  UNL1        0.0212
      3 C          63.9100   86.7251   13.8569 C.ar    1  UNL1        0.1523
      4 N          63.2031   86.7296   12.5340 N.ar    1  UNL1       -0.2414
      5 C          62.8145   88.0303   11.8957 C.ar    1  UNL1        0.0848
      6 C          62.1076   88.0349   10.5728 C.ar    1  UNL1        0.0890
      7 C          61.7191   89.3355    9.9346 C.ar    1  UNL1        0.0054
      8 C          62.0374   90.6316   10.6193 C.ar    1  UNL1        0.0000
      9 C          62.7444   90.6270   11.9422 C.ar    1  UNL1        0.0012
     10 C          63.1329   89.3264   12.5804 C.ar    1  UNL1        0.0160
     11 C          64.2986   85.4244   14.4952 C.3     1  UNL1        0.4348
     12 F          64.6872   84.1238   15.1334 F       1  UNL1       -0.1644
     13 F          63.0297   84.8000   13.9954 F       1  UNL1       -0.1644
     14 F          65.5676   86.0488   14.9949 F       1  UNL1       -0.1644
     15 C          61.7892   86.7388    9.8881 C.3     1  UNL1        0.4200
     16 F          61.4708   85.4428    9.2033 F       1  UNL1       -0.1658
     17 F          62.9232   86.9650    8.9326 F       1  UNL1       -0.1658
     18 F          60.6552   86.5126   10.8435 F       1  UNL1       -0.1658
     19 O          63.2804   91.1151   15.6982 O.3     1  UNL1       -0.3787
     20 C          64.1583   90.6178   14.5881 C.3     1  UNL1        0.1470
     21 H          62.5580   90.4848   15.8461 H       1  UNL1        0.2108
     22 C          65.3545   91.4167   14.1629 C.3     1  UNL1        0.0855
     23 C          66.6911   91.1589   14.7930 C.3     1  UNL1        0.0186
     24 C          67.8874   91.9578   14.3677 C.3     1  UNL1        0.0029
     25 C          67.7470   93.0144   13.3123 C.3     1  UNL1        0.0171
     26 C          66.4104   93.2721   12.6821 C.3     1  UNL1        0.0686
     27 N          65.2142   92.4733   13.1074 N.3     1  UNL1       -0.2963
     28 H          64.8577   92.0094   12.2719 H       1  UNL1        0.1233
@<TRIPOS>BOND
     1    20    19    1
     2    20     1    1
     3     1     2   ar
     4     2     3   ar
     5     3    11    1
     6    11    12    1
     7    11    13    1
     8    11    14    1
     9     3     4   ar
    10     4     5   ar
    11     5     6   ar
    12     6    15    1
    13    15    16    1
    14    15    17    1
    15    15    18    1
    16     6     7   ar
    17     7     8   ar
    18     8     9   ar
    19     9    10   ar
    20    20    22    1
    21    22    23    1
    22    23    24    1
    23    24    25    1
    24    25    26    1
    25    26    27    1
    26    10     1   ar
    27    27    22    1
    28    10     5   ar
    29    19    21    1
    30    27    28    1
@<TRIPOS>MOLECULE
*****
 28 30 0 0 0
SMALL
GASTEIGER

@<TRIPOS>ATOM
      1 C          63.1263   88.7633   12.6875 C.ar    1  UNL1        0.0084
      2 C          62.3400   88.7709   11.4102 C.ar    1  UNL1        0.0212
      3 C          62.0137   87.4783   10.7226 C.ar    1  UNL1        0.1523
      4 N          62.4738   86.1781   11.3123 N.ar    1  UNL1       -0.2414
      5 C          63.2602   86.1705   12.5897 C.ar    1  UNL1        0.0848
      6 C          63.7203   84.8703   13.1794 C.ar    1  UNL1        0.0890
      7 C          64.5067   84.8627   14.4567 C.ar    1  UNL1        0.0054
      8 C          64.8330   86.1553   15.1443 C.ar    1  UNL1        0.0000
      9 C          64.3729   87.4555   14.5546 C.ar    1  UNL1        0.0012
     10 C          63.5865   87.4631   13.2773 C.ar    1  UNL1        0.0160
     11 C          61.2273   87.4859    9.4453 C.3     1  UNL1        0.4348
     12 F          60.4410   87.4936    8.1680 F       1  UNL1       -0.1644
     13 F          60.9539   86.0198    9.6048 F       1  UNL1       -0.1644
     14 F          61.5007   88.9521    9.2858 F       1  UNL1       -0.1644
     15 C          63.3941   83.5777   12.4918 C.3     1  UNL1        0.4200
     16 F          63.0678   82.2851   11.8042 F       1  UNL1       -0.1658
     17 F          62.1575   83.4438   13.3303 F       1  UNL1       -0.1658
     18 F          64.6306   83.7116   11.6534 F       1  UNL1       -0.1658
     19 O          62.8067   90.3916   14.6867 O.3     1  UNL1       -0.3787
     20 C          63.4526   90.0559   13.3751 C.3     1  UNL1        0.1470
     21 H          62.2105   89.6721   14.9470 H       1  UNL1        0.2108
     22 C          64.4247   91.0128   12.7512 C.3     1  UNL1        0.0855
     23 C          64.1646   91.5572   11.3779 C.3     1  UNL1        0.0186
     24 C          65.1368   92.5142   10.7540 C.3     1  UNL1        0.0029
     25 C          66.3690   92.9266   11.5033 C.3     1  UNL1        0.0171
     26 C          66.6291   92.3822   12.8766 C.3     1  UNL1        0.0686
     27 N          65.6570   91.4253   13.5005 N.3     1  UNL1       -0.2963
     28 H          65.3426   91.8515   14.3723 H       1  UNL1        0.1233
@<TRIPOS>BOND
     1    20    19    1
     2    20     1    1
     3     1     2   ar
     4     2     3   ar
     5     3    11    1
     6    11    12    1
     7    11    13    1
     8    11    14    1
     9     3     4   ar
    10     4     5   ar
    11     5     6   ar
    12     6    15    1
    13    15    16    1
    14    15    17    1
    15    15    18    1
    16     6     7   ar
    17     7     8   ar
    18     8     9   ar
    19     9    10   ar
    20    20    22    1
    21    22    23    1
    22    23    24    1
    23    24    25    1
    24    25    26    1
    25    26    27    1
    26    10     1   ar
    27    27    22    1
    28    10     5   ar
    29    19    21    1
    30    27    28    1
@<TRIPOS>MOLECULE
*****
 28 30 0 0 0
SMALL
GASTEIGER

@<TRIPOS>ATOM
      1 C          64.0951   85.8597   13.6696 C.ar    1  UNL1        0.0084
      2 C          64.4005   87.0555   14.5221 C.ar    1  UNL1        0.0212
      3 C          63.8863   88.4085   14.1282 C.ar    1  UNL1        0.1523
      4 N          63.0667   88.5656   12.8818 N.ar    1  UNL1       -0.2414
      5 C          62.7613   87.3698   12.0292 C.ar    1  UNL1        0.0848
      6 C          61.9417   87.5270   10.7828 C.ar    1  UNL1        0.0890
      7 C          61.6363   86.3313    9.9303 C.ar    1  UNL1        0.0054
      8 C          62.1505   84.9783   10.3242 C.ar    1  UNL1        0.0000
      9 C          62.9701   84.8211   11.5706 C.ar    1  UNL1        0.0012
     10 C          63.2755   86.0169   12.4231 C.ar    1  UNL1        0.0160
     11 C          64.1918   89.6043   14.9808 C.3     1  UNL1        0.4348
     12 F          64.4972   90.8000   15.8333 F       1  UNL1       -0.1644
     13 F          63.5109   88.9481   16.1452 F       1  UNL1       -0.1644
     14 F          64.8726   90.2604   13.8165 F       1  UNL1       -0.1644
     15 C          61.4275   88.8800   10.3890 C.3     1  UNL1        0.4200
     16 F          60.9133   90.2329    9.9951 F       1  UNL1       -0.1658
     17 F          62.7708   89.2240    9.8171 F       1  UNL1       -0.1658
     18 F          60.0842   88.5360   10.9609 F       1  UNL1       -0.1658
     19 O          65.9915   84.3652   14.6288 O.3     1  UNL1       -0.3787
     20 C          64.6093   84.5068   14.0634 C.3     1  UNL1        0.1470
     21 H          66.4139   85.2372   14.6723 H       1  UNL1        0.2108
     22 C          63.7413   83.2955   13.8920 C.3     1  UNL1        0.0855
     23 C          62.4535   83.1819   14.6526 C.3     1  UNL1        0.0186
     24 C          61.5855   81.9705   14.4812 C.3     1  UNL1        0.0029
     25 C          62.0054   80.8729   13.5491 C.3     1  UNL1        0.0171
     26 C          63.2933   80.9865   12.7885 C.3     1  UNL1        0.0686
     27 N          64.1612   82.1978   12.9599 N.3     1  UNL1       -0.2963
     28 H          64.2647   82.6189   12.0367 H       1  UNL1        0.1233
@<TRIPOS>BOND
     1    20    19    1
     2    20     1    1
     3     1     2   ar
     4     2     3   ar
     5     3    11    1
     6    11    12    1
     7    11    13    1
     8    11    14    1
     9     3     4   ar
    10     4     5   ar
    11     5     6   ar
    12     6    15    1
    13    15    16    1
    14    15    17    1
    15    15    18    1
    16     6     7   ar
    17     7     8   ar
    18     8     9   ar
    19     9    10   ar
    20    20    22    1
    21    22    23    1
    22    23    24    1
    23    24    25    1
    24    25    26    1
    25    26    27    1
    26    10     1   ar
    27    27    22    1
    28    10     5   ar
    29    19    21    1
    30    27    28    1
@<TRIPOS>MOLECULE
*****
 28 30 0 0 0
SMALL
GASTEIGER

@<TRIPOS>ATOM
      1 C          63.4174   85.1904   12.3362 C.ar    1  UNL1        0.0084
      2 C          62.7373   84.9377   11.0233 C.ar    1  UNL1        0.0212
      3 C          62.1786   86.0850   10.2350 C.ar    1  UNL1        0.1523
      4 N          62.2999   87.4850   10.7595 N.ar    1  UNL1       -0.2414
      5 C          62.9800   87.7378   12.0724 C.ar    1  UNL1        0.0848
      6 C          63.1014   89.1378   12.5969 C.ar    1  UNL1        0.0890
      7 C          63.7815   89.3905   13.9097 C.ar    1  UNL1        0.0054
      8 C          64.3402   88.2432   14.6980 C.ar    1  UNL1        0.0000
      9 C          64.2189   86.8432   14.1735 C.ar    1  UNL1        0.0012
     10 C          63.5388   86.5905   12.8607 C.ar    1  UNL1        0.0160
     11 C          61.4984   85.8322    8.9221 C.3     1  UNL1        0.4348
     12 F          60.8183   85.5794    7.6093 F       1  UNL1       -0.1644
     13 F          62.7945   85.3462    8.3442 F       1  UNL1       -0.1644
     14 F          60.2024   86.3182    9.5000 F       1  UNL1       -0.1644
     15 C          62.5426   90.2851   11.8085 C.3     1  UNL1        0.4200
     16 F          61.9839   91.4324   11.0202 F       1  UNL1       -0.1658
     17 F          63.9132   90.5899   11.2807 F       1  UNL1       -0.1658
     18 F          61.1721   89.9804   12.3364 F       1  UNL1       -0.1658
     19 O          65.3089   84.1758   13.8001 O.3     1  UNL1       -0.3787
     20 C          63.9762   84.0431   13.1245 C.3     1  UNL1        0.1470
     21 H          65.6718   85.0588   13.6285 H       1  UNL1        0.2108
     22 C          63.2023   82.7631   13.2372 C.3     1  UNL1        0.0855
     23 C          63.5082   81.6182   12.3176 C.3     1  UNL1        0.0186
     24 C          62.7343   80.3382   12.4304 C.3     1  UNL1        0.0029
     25 C          61.6545   80.2031   13.4628 C.3     1  UNL1        0.0171
     26 C          61.3486   81.3480   14.3824 C.3     1  UNL1        0.0686
     27 N          62.1225   82.6279   14.2696 N.3     1  UNL1       -0.2963
     28 H          62.5606   82.7880   15.1767 H       1  UNL1        0.1233
@<TRIPOS>BOND
     1    20    19    1
     2    20     1    1
     3     1     2   ar
     4     2     3   ar
     5     3    11    1
     6    11    12    1
     7    11    13    1
     8    11    14    1
     9     3     4   ar
    10     4     5   ar
    11     5     6   ar
    12     6    15    1
    13    15    16    1
    14    15    17    1
    15    15    18    1
    16     6     7   ar
    17     7     8   ar
    18     8     9   ar
    19     9    10   ar
    20    20    22    1
    21    22    23    1
    22    23    24    1
    23    24    25    1
    24    25    26    1
    25    26    27    1
    26    10     1   ar
    27    27    22    1
    28    10     5   ar
    29    19    21    1
    30    27    28    1
@<TRIPOS>MOLECULE
*****
 28 30 0 0 0
SMALL
GASTEIGER

@<TRIPOS>ATOM
      1 C          62.0953   88.0473   11.5379 C.ar    1  UNL1        0.0084
      2 C          61.4255   87.8023   10.2183 C.ar    1  UNL1        0.0212
      3 C          61.4785   86.4404    9.5918 C.ar    1  UNL1        0.1523
      4 N          62.2012   85.3236   10.2849 N.ar    1  UNL1       -0.2414
      5 C          62.8710   85.5686   11.6045 C.ar    1  UNL1        0.0848
      6 C          63.5937   84.4518   12.2975 C.ar    1  UNL1        0.0890
      7 C          64.2635   84.6968   13.6171 C.ar    1  UNL1        0.0054
      8 C          64.2106   86.0587   14.2436 C.ar    1  UNL1        0.0000
      9 C          63.4879   87.1755   13.5506 C.ar    1  UNL1        0.0012
     10 C          62.8181   86.9304   12.2310 C.ar    1  UNL1        0.0160
     11 C          60.8086   86.1954    8.2722 C.3     1  UNL1        0.4348
     12 F          60.1389   85.9504    6.9526 F       1  UNL1       -0.1644
     13 F          59.5311   86.7639    8.8150 F       1  UNL1       -0.1644
     14 F          62.0862   85.6269    7.7293 F       1  UNL1       -0.1644
     15 C          63.6467   83.0899   11.6710 C.3     1  UNL1        0.4200
     16 F          63.6996   81.7280   11.0445 F       1  UNL1       -0.1658
     17 F          62.3396   82.7410   12.3190 F       1  UNL1       -0.1658
     18 F          64.9537   83.4388   11.0230 F       1  UNL1       -0.1658
     19 O          60.8827   89.7888   13.0369 O.3     1  UNL1       -0.3787
     20 C          62.0424   89.4092   12.1644 C.3     1  UNL1        0.1470
     21 H          60.2618   89.0455   13.0910 H       1  UNL1        0.2108
     22 C          63.1491   90.3914   11.9185 C.3     1  UNL1        0.0855
     23 C          64.0896   90.7550   13.0290 C.3     1  UNL1        0.0186
     24 C          65.1964   91.7373   12.7830 C.3     1  UNL1        0.0029
     25 C          65.3624   92.3558   11.4267 C.3     1  UNL1        0.0171
     26 C          64.4219   91.9922   10.3162 C.3     1  UNL1        0.0686
     27 N          63.3152   91.0100   10.5621 N.3     1  UNL1       -0.2963
     28 H          63.4503   90.2431    9.9033 H       1  UNL1        0.1233
@<TRIPOS>BOND
     1    20    19    1
     2    20     1    1
     3     1     2   ar
     4     2     3   ar
     5     3    11    1
     6    11    12    1
     7    11    13    1
     8    11    14    1
     9     3     4   ar
    10     4     5   ar
    11     5     6   ar
    12     6    15    1
    13    15    16    1
    14    15    17    1
    15    15    18    1
    16     6     7   ar
    17     7     8   ar
    18     8     9   ar
    19     9    10   ar
    20    20    22    1
    21    22    23    1
    22    23    24    1
    23    24    25    1
    24    25    26    1
    25    26    27    1
    26    10     1   ar
    27    27    22    1
    28    10     5   ar
    29    19    21    1
    30    27    28    1
@<TRIPOS>MOLECULE
*****
 28 30 0 0 0
SMALL
GASTEIGER

@<TRIPOS>ATOM
      1 C          62.0797   88.3367   11.5617 C.ar    1  UNL1        0.0084
      2 C          62.7670   87.1151   12.0959 C.ar    1  UNL1        0.0212
      3 C          62.7309   85.8334   11.3175 C.ar    1  UNL1        0.1523
      4 N          62.0075   85.7733   10.0048 N.ar    1  UNL1       -0.2414
      5 C          61.3202   86.9949    9.4706 C.ar    1  UNL1        0.0848
      6 C          60.5969   86.9348    8.1579 C.ar    1  UNL1        0.0890
      7 C          59.9096   88.1564    7.6237 C.ar    1  UNL1        0.0054
      8 C          59.9457   89.4381    8.4022 C.ar    1  UNL1        0.0000
      9 C          60.6691   89.4982    9.7148 C.ar    1  UNL1        0.0012
     10 C          61.3563   88.2766   10.2490 C.ar    1  UNL1        0.0160
     11 C          63.4182   84.6118   11.8517 C.3     1  UNL1        0.4348
     12 F          64.1054   83.3902   12.3859 F       1  UNL1       -0.1644
     13 F          63.3944   85.2014   13.2307 F       1  UNL1       -0.1644
     14 F          63.4420   84.0222   10.4727 F       1  UNL1       -0.1644
     15 C          60.5608   85.6532    7.3794 C.3     1  UNL1        0.4200
     16 F          60.5247   84.3715    6.6010 F       1  UNL1       -0.1658
     17 F          62.0603   85.6280    7.3513 F       1  UNL1       -0.1658
     18 F          59.0613   85.6783    7.4075 F       1  UNL1       -0.1658
     19 O          60.9939   89.9595   13.2757 O.3     1  UNL1       -0.3787
     20 C          62.1158   89.6183   12.3402 C.3     1  UNL1        0.1470
     21 H          60.3319   89.2508   13.2586 H       1  UNL1        0.2108
     22 C          63.2737   90.5589   12.1832 C.3     1  UNL1        0.0855
     23 C          63.5403   91.2052   10.8561 C.3     1  UNL1        0.0186
     24 C          64.6983   92.1458   10.6992 C.3     1  UNL1        0.0029
     25 C          65.5895   92.4399   11.8692 C.3     1  UNL1        0.0171
     26 C          65.3229   91.7936   13.1963 C.3     1  UNL1        0.0686
     27 N          64.1650   90.8531   13.3533 N.3     1  UNL1       -0.2963
     28 H          63.5702   91.2382   14.0870 H       1  UNL1        0.1233
@<TRIPOS>BOND
     1    20    19    1
     2    20     1    1
     3     1     2   ar
     4     2     3   ar
     5     3    11    1
     6    11    12    1
     7    11    13    1
     8    11    14    1
     9     3     4   ar
    10     4     5   ar
    11     5     6   ar
    12     6    15    1
    13    15    16    1
    14    15    17    1
    15    15    18    1
    16     6     7   ar
    17     7     8   ar
    18     8     9   ar
    19     9    10   ar
    20    20    22    1
    21    22    23    1
    22    23    24    1
    23    24    25    1
    24    25    26    1
    25    26    27    1
    26    10     1   ar
    27    27    22    1
    28    10     5   ar
    29    19    21    1
    30    27    28    1
