@<TRIPOS>MOLECULE
*****
 43 45 0 0 0
SMALL
GASTEIGER

@<TRIPOS>ATOM
      1 C          61.9170   88.6150   10.8391 C.ar    1  UNL1        0.0539
      2 S          61.1861   89.2814    9.7114 S.2     1  UNL1       -0.0619
      3 C          60.3903   88.2334    8.9913 C.ar    1  UNL1        0.1641
      4 N          60.6294   86.9193    9.6741 N.ar    1  UNL1       -0.2291
      5 C          61.5729   87.1552   10.8160 C.ar    1  UNL1        0.1414
      6 C          62.0828   86.1140   11.7678 C.2     1  UNL1        0.2672
      7 O          61.7955   86.2341   13.2352 O.2     1  UNL1       -0.2682
      8 N          62.8800   84.9527   11.2524 N.am    1  UNL1       -0.2765
      9 C          63.3899   83.9115   12.2042 C.3     1  UNL1        0.0937
     10 C          64.1871   82.7502   11.6887 C.3     1  UNL1        0.0216
     11 C          64.4745   82.6300   10.2214 C.3     1  UNL1        0.0035
     12 C          63.9646   83.6712    9.2695 C.3     1  UNL1        0.0199
     13 C          63.1674   84.8325    9.7850 C.3     1  UNL1        0.0757
     14 C          62.6575   85.8737    8.8332 C.3     1  UNL1        0.0215
     15 C          64.6602   90.6399   13.7759 C.ar    1  UNL1        0.1333
     16 C          64.0650   89.3028   14.1045 C.ar    1  UNL1        0.0208
     17 C          63.1506   88.6279   13.1256 C.ar    1  UNL1        0.0028
     18 C          62.8314   89.2900   11.8181 C.ar    1  UNL1        0.0191
     19 C          63.4266   90.6270   11.4895 C.ar    1  UNL1        0.0700
     20 CL         63.1074   91.2892   10.1819 Cl      1  UNL1       -0.0813
     21 C          64.3410   91.3019   12.4684 C.ar    1  UNL1        0.0867
     22 CL         64.9362   92.6391   12.1397 Cl      1  UNL1       -0.0800
     23 S          65.5746   91.3148   14.7549 S.O2    1  UNL1        0.0613
     24 O          66.7628   90.8441   13.9696 O.2     1  UNL1       -0.1530
     25 O          64.3864   91.7856   15.5401 O.2     1  UNL1       -0.1530
     26 N          66.4890   91.9898   15.7338 N.3     1  UNL1       -0.1723
     27 H          65.9066   92.3122   16.5066 H       1  UNL1        0.1491
     28 C          66.8039   94.0973   14.2475 C.3     1  UNL1        0.0278
     29 C          67.3197   93.1609   15.2997 C.3     1  UNL1        0.1701
     30 C          68.6661   93.3956   15.9177 C.3     1  UNL1        0.4118
     31 F          70.0126   93.6303   16.5357 F       1  UNL1       -0.1685
     32 F          68.4717   94.8764   15.7789 F       1  UNL1       -0.1685
     33 F          68.8605   91.9147   16.0565 F       1  UNL1       -0.1685
     34 C          59.5100   88.4598    7.7981 C.2     1  UNL1        0.2699
     35 O          58.4997   87.4234    7.4039 O.2     1  UNL1       -0.2679
     36 N          59.6400   89.7225    6.9990 N.am    1  UNL1       -0.2969
     37 H          60.3031   90.4027    7.2577 H       1  UNL1        0.1499
     38 C          58.7597   89.9489    5.8057 C.3     1  UNL1        0.1166
     39 C          58.8497   91.2361    5.0408 C.3     1  UNL1        0.1064
     40 C          60.3449   91.1177    5.0175 C.3     1  UNL1        0.0311
     41 C          57.3545   91.3544    5.0642 C.3     1  UNL1        0.0311
     42 O          58.9396   92.5233    4.2759 O.3     1  UNL1       -0.3851
     43 H          59.8706   92.7286    4.0968 H       1  UNL1        0.2103
@<TRIPOS>BOND
     1    29    28    1
     2    29    26    1
     3    26    23    1
     4    23    24    2
     5    23    25    2
     6    23    15    1
     7    15    16   ar
     8    16    17   ar
     9    17    18   ar
    10    18     1    1
    11     1     2   ar
    12     2     3   ar
    13     3    34    1
    14    34    35    2
    15    34    36   am
    16    36    38    1
    17    38    39    1
    18    39    40    1
    19    39    41    1
    20    39    42    1
    21     3     4   ar
    22     4     5   ar
    23     5     6    1
    24     6     7    2
    25     6     8   am
    26     8     9    1
    27     9    10    1
    28    10    11    1
    29    11    12    1
    30    12    13    1
    31    13    14    1
    32    18    19   ar
    33    19    20    1
    34    19    21   ar
    35    21    22    1
    36    29    30    1
    37    30    31    1
    38    30    32    1
    39    30    33    1
    40    21    15   ar
    41     5     1   ar
    42    13     8    1
    43    26    27    1
    44    36    37    1
    45    42    43    1
@<TRIPOS>MOLECULE
*****
 43 45 0 0 0
SMALL
GASTEIGER

@<TRIPOS>ATOM
      1 C          63.4683   89.1667   12.8130 C.ar    1  UNL1        0.0539
      2 S          64.6693   90.0556   12.9440 S.2     1  UNL1       -0.0619
      3 C          64.2664   91.4422   12.5376 C.ar    1  UNL1        0.1641
      4 N          62.8163   91.4101   12.1553 N.ar    1  UNL1       -0.2291
      5 C          62.3230   90.0038   12.3256 C.ar    1  UNL1        0.1414
      6 C          60.9292   89.5196   12.0557 C.2     1  UNL1        0.2672
      7 O          59.8846   89.6051   13.1289 O.2     1  UNL1       -0.2682
      8 N          60.5798   88.9501   10.7129 N.am    1  UNL1       -0.2765
      9 C          59.1860   88.4659   10.4430 C.3     1  UNL1        0.0937
     10 C          58.8367   87.8963    9.1001 C.3     1  UNL1        0.0216
     11 C          59.8812   87.8109    8.0269 C.3     1  UNL1        0.0035
     12 C          61.2751   88.2950    8.2966 C.3     1  UNL1        0.0199
     13 C          61.6243   88.8646    9.6396 C.3     1  UNL1        0.0757
     14 C          63.0182   89.3488    9.9095 C.3     1  UNL1        0.0215
     15 C          63.3258   84.7619   13.7226 C.ar    1  UNL1        0.1333
     16 C          62.9039   85.2631   12.3733 C.ar    1  UNL1        0.0208
     17 C          62.9513   86.7314   12.0701 C.ar    1  UNL1        0.0028
     18 C          63.4208   87.6984   13.1162 C.ar    1  UNL1        0.0191
     19 C          63.8427   87.1972   14.4655 C.ar    1  UNL1        0.0700
     20 CL         64.3122   88.1642   15.5117 Cl      1  UNL1       -0.0813
     21 C          63.7952   85.7289   14.7687 C.ar    1  UNL1        0.0867
     22 CL         64.2172   85.2277   16.1181 Cl      1  UNL1       -0.0800
     23 S          63.2783   83.2936   14.0258 S.O2    1  UNL1        0.0613
     24 O          64.5803   83.1028   13.3057 O.2     1  UNL1       -0.1530
     25 O          61.9764   83.4844   14.7458 O.2     1  UNL1       -0.1530
     26 N          63.2309   81.8253   14.3290 N.3     1  UNL1       -0.1723
     27 H          64.1537   81.4496   14.1107 H       1  UNL1        0.1491
     28 C          60.8893   80.7017   14.2591 C.3     1  UNL1        0.0278
     29 C          62.2311   80.9482   13.6353 C.3     1  UNL1        0.1701
     30 C          62.5731   80.3176   12.3180 C.3     1  UNL1        0.4118
     31 F          62.9150   79.6869   11.0007 F       1  UNL1       -0.1685
     32 F          62.7153   78.9854   12.9926 F       1  UNL1       -0.1685
     33 F          62.4309   81.6497   11.6434 F       1  UNL1       -0.1685
     34 C          65.1572   92.6488   12.5170 C.2     1  UNL1        0.2699
     35 O          65.7533   93.1629   13.7938 O.2     1  UNL1       -0.2679
     36 N          65.4519   93.3414   11.2195 N.am    1  UNL1       -0.2969
     37 H          65.0607   93.0040   10.3814 H       1  UNL1        0.1499
     38 C          66.3427   94.5480   11.1989 C.3     1  UNL1        0.1166
     39 C          67.1286   94.8791    9.9647 C.3     1  UNL1        0.1064
     40 C          66.8514   96.3376   10.1795 C.3     1  UNL1        0.0311
     41 C          67.4057   93.4206    9.7501 C.3     1  UNL1        0.0311
     42 O          67.9144   95.2101    8.7307 O.3     1  UNL1       -0.3851
     43 H          67.9148   96.1706    8.5955 H       1  UNL1        0.2103
@<TRIPOS>BOND
     1    29    28    1
     2    29    26    1
     3    26    23    1
     4    23    24    2
     5    23    25    2
     6    23    15    1
     7    15    16   ar
     8    16    17   ar
     9    17    18   ar
    10    18     1    1
    11     1     2   ar
    12     2     3   ar
    13     3    34    1
    14    34    35    2
    15    34    36   am
    16    36    38    1
    17    38    39    1
    18    39    40    1
    19    39    41    1
    20    39    42    1
    21     3     4   ar
    22     4     5   ar
    23     5     6    1
    24     6     7    2
    25     6     8   am
    26     8     9    1
    27     9    10    1
    28    10    11    1
    29    11    12    1
    30    12    13    1
    31    13    14    1
    32    18    19   ar
    33    19    20    1
    34    19    21   ar
    35    21    22    1
    36    29    30    1
    37    30    31    1
    38    30    32    1
    39    30    33    1
    40    21    15   ar
    41     5     1   ar
    42    13     8    1
    43    26    27    1
    44    36    37    1
    45    42    43    1
@<TRIPOS>MOLECULE
*****
 43 45 0 0 0
SMALL
GASTEIGER

@<TRIPOS>ATOM
      1 C          63.0510   88.5289   12.1391 C.ar    1  UNL1        0.0539
      2 S          63.5108   87.3576   12.9556 S.2     1  UNL1       -0.0619
      3 C          62.4691   86.2833   12.8528 C.ar    1  UNL1        0.1641
      4 N          61.3654   86.7905   11.9728 N.ar    1  UNL1       -0.2291
      5 C          61.7250   88.1783   11.5316 C.ar    1  UNL1        0.1414
      6 C          60.9029   89.0607   10.6397 C.2     1  UNL1        0.2672
      7 O          60.5813   90.4636   11.0626 O.2     1  UNL1       -0.2682
      8 N          60.4025   88.5405    9.3249 N.am    1  UNL1       -0.2765
      9 C          59.5804   89.4229    8.4329 C.3     1  UNL1        0.0937
     10 C          59.0799   88.9025    7.1181 C.3     1  UNL1        0.0216
     11 C          59.4015   87.4998    6.6952 C.3     1  UNL1        0.0035
     12 C          60.2235   86.6173    7.5871 C.3     1  UNL1        0.0199
     13 C          60.7240   87.1377    8.9019 C.3     1  UNL1        0.0757
     14 C          61.5461   86.2553    9.7939 C.3     1  UNL1        0.0215
     15 C          65.2611   92.4122   11.6054 C.ar    1  UNL1        0.1333
     16 C          64.5962   91.7600   10.4297 C.ar    1  UNL1        0.0208
     17 C          63.8595   90.4656   10.6076 C.ar    1  UNL1        0.0028
     18 C          63.7877   89.8233   11.9612 C.ar    1  UNL1        0.0191
     19 C          64.4526   90.4755   13.1369 C.ar    1  UNL1        0.0700
     20 CL         64.3809   89.8333   14.4906 Cl      1  UNL1       -0.0813
     21 C          65.1893   91.7700   12.9590 C.ar    1  UNL1        0.0867
     22 CL         65.8543   92.4222   14.1349 Cl      1  UNL1       -0.0800
     23 S          65.9978   93.7067   11.4275 S.O2    1  UNL1        0.0613
     24 O          67.1856   93.1283   12.1381 O.2     1  UNL1       -0.1530
     25 O          64.8101   94.2850   10.7170 O.2     1  UNL1       -0.1530
     26 N          66.7346   95.0011   11.2497 N.3     1  UNL1       -0.1723
     27 H          66.1124   95.7411   11.5747 H       1  UNL1        0.1491
     28 C          67.2179   96.8556    9.4954 C.3     1  UNL1        0.0278
     29 C          67.2179   95.4082    9.8893 C.3     1  UNL1        0.1701
     30 C          67.7013   94.3679    8.9228 C.3     1  UNL1        0.4118
     31 F          68.1847   93.3276    7.9563 F       1  UNL1       -0.1685
     32 F          68.8171   94.0147    9.8610 F       1  UNL1       -0.1685
     33 F          66.5856   94.7211    7.9845 F       1  UNL1       -0.1685
     34 C          62.5218   84.9379   13.5140 C.2     1  UNL1        0.2699
     35 O          62.1457   84.7972   14.9593 O.2     1  UNL1       -0.2679
     36 N          62.9508   83.7332   12.7300 N.am    1  UNL1       -0.2969
     37 H          63.1977   83.8256   11.7814 H       1  UNL1        0.1499
     38 C          63.0035   82.3879   13.3912 C.3     1  UNL1        0.1166
     39 C          62.8589   81.1418   12.5686 C.3     1  UNL1        0.1064
     40 C          63.2928   81.8974   11.3477 C.3     1  UNL1        0.0311
     41 C          62.4250   80.3862   13.7897 C.3     1  UNL1        0.0311
     42 O          62.7142   79.8957   11.7462 O.3     1  UNL1       -0.3851
     43 H          62.9476   80.0878   10.8245 H       1  UNL1        0.2103
@<TRIPOS>BOND
     1    29    28    1
     2    29    26    1
     3    26    23    1
     4    23    24    2
     5    23    25    2
     6    23    15    1
     7    15    16   ar
     8    16    17   ar
     9    17    18   ar
    10    18     1    1
    11     1     2   ar
    12     2     3   ar
    13     3    34    1
    14    34    35    2
    15    34    36   am
    16    36    38    1
    17    38    39    1
    18    39    40    1
    19    39    41    1
    20    39    42    1
    21     3     4   ar
    22     4     5   ar
    23     5     6    1
    24     6     7    2
    25     6     8   am
    26     8     9    1
    27     9    10    1
    28    10    11    1
    29    11    12    1
    30    12    13    1
    31    13    14    1
    32    18    19   ar
    33    19    20    1
    34    19    21   ar
    35    21    22    1
    36    29    30    1
    37    30    31    1
    38    30    32    1
    39    30    33    1
    40    21    15   ar
    41     5     1   ar
    42    13     8    1
    43    26    27    1
    44    36    37    1
    45    42    43    1
