@<TRIPOS>MOLECULE
*****
 23 25 0 0 0
SMALL
GASTEIGER

@<TRIPOS>ATOM
      1 C          61.4474   88.1977   10.8378 C.ar    1  UNL1       -0.0158
      2 C          62.2046   86.9548   11.2006 C.ar    1  UNL1        0.0050
      3 S          61.9528   85.9306   10.1340 S.2     1  UNL1       -0.0915
      4 C          61.0398   86.5406    9.1120 C.ar    1  UNL1        0.0288
      5 C          60.4526   86.0012    7.8415 C.ar    1  UNL1        0.0065
      6 C          59.5530   86.8629    7.0060 C.ar    1  UNL1        0.0005
      7 C          59.2406   88.2641    7.4410 C.ar    1  UNL1        0.0000
      8 C          59.8279   88.8035    8.7114 C.ar    1  UNL1        0.0002
      9 C          60.7274   87.9417    9.5469 C.ar    1  UNL1        0.0025
     10 C          61.4155   89.4728   11.6272 C.3     1  UNL1        0.0463
     11 C          60.1610   89.8822   12.3404 C.3     1  UNL1        0.0095
     12 C          66.3059   92.9355   11.9321 C.3     1  UNL1        0.0521
     13 C          65.0833   92.0698   11.8559 C.ar    1  UNL1        0.0594
     14 C          64.3398   91.9346   10.5602 C.ar    1  UNL1        0.0144
     15 C          63.1172   91.0689   10.4840 C.ar    1  UNL1       -0.0012
     16 C          62.6381   90.3384   11.7034 C.ar    1  UNL1        0.0007
     17 C          63.3817   90.4737   12.9991 C.ar    1  UNL1        0.0944
     18 N          64.6043   91.3394   13.0753 N.ar    1  UNL1       -0.2485
     19 C          63.0631   86.7687   12.4165 C.3     1  UNL1        0.0499
     20 C          63.2875   85.3939   12.9729 C.3     1  UNL1        0.0774
     21 N          63.2819   85.1752   14.4569 N.3     1  UNL1       -0.2700
     22 C          64.1750   85.9961   15.3393 C.3     1  UNL1        0.0897
     23 C          62.3832   84.1358   15.0584 C.3     1  UNL1        0.0897
@<TRIPOS>BOND
     1    12    13    1
     2    13    14   ar
     3    14    15   ar
     4    15    16   ar
     5    16    10    1
     6    10    11    1
     7    10     1    1
     8     1     2   ar
     9     2    19    1
    10    19    20    1
    11    20    21    1
    12    21    22    1
    13    21    23    1
    14     2     3   ar
    15     3     4   ar
    16     4     5   ar
    17     5     6   ar
    18     6     7   ar
    19     7     8   ar
    20     8     9   ar
    21    16    17   ar
    22    17    18   ar
    23    18    13   ar
    24     9     1   ar
    25     9     4   ar
@<TRIPOS>MOLECULE
*****
 23 25 0 0 0
SMALL
GASTEIGER

@<TRIPOS>ATOM
      1 C          63.4403   87.1763   12.9746 C.ar    1  UNL1       -0.0158
      2 C          63.6184   88.6581   13.1249 C.ar    1  UNL1        0.0050
      3 S          62.9365   89.3266   11.9682 S.2     1  UNL1       -0.0915
      4 C          62.3369   88.2580   11.1030 C.ar    1  UNL1        0.0288
      5 C          61.5476   88.3235    9.8292 C.ar    1  UNL1        0.0065
      6 C          61.0696   87.0599    9.1773 C.ar    1  UNL1        0.0005
      7 C          61.3810   85.7309    9.7993 C.ar    1  UNL1        0.0000
      8 C          62.1703   85.6655   11.0731 C.ar    1  UNL1        0.0002
      9 C          62.6482   86.9290   11.7250 C.ar    1  UNL1        0.0025
     10 C          63.9624   86.1261   13.9097 C.3     1  UNL1        0.0463
     11 C          64.8718   86.5121   15.0385 C.3     1  UNL1        0.0095
     12 C          62.4143   80.3813   13.1350 C.3     1  UNL1        0.0521
     13 C          62.8013   81.8175   13.3287 C.ar    1  UNL1        0.0594
     14 C          63.9616   82.3904   12.5700 C.ar    1  UNL1        0.0144
     15 C          64.3486   83.8266   12.7636 C.ar    1  UNL1       -0.0012
     16 C          63.5754   84.6900   13.7160 C.ar    1  UNL1        0.0007
     17 C          62.4152   84.1169   14.4747 C.ar    1  UNL1        0.0944
     18 N          62.0282   82.6807   14.2810 N.ar    1  UNL1       -0.2485
     19 C          64.3501   89.3498   14.2368 C.3     1  UNL1        0.0499
     20 C          64.0904   90.8003   14.5171 C.3     1  UNL1        0.0774
     21 N          65.1398   91.8247   14.2019 N.3     1  UNL1       -0.2700
     22 C          66.0218   92.3550   15.2932 C.3     1  UNL1        0.0897
     23 C          65.3072   92.3187   12.7956 C.3     1  UNL1        0.0897
@<TRIPOS>BOND
     1    12    13    1
     2    13    14   ar
     3    14    15   ar
     4    15    16   ar
     5    16    10    1
     6    10    11    1
     7    10     1    1
     8     1     2   ar
     9     2    19    1
    10    19    20    1
    11    20    21    1
    12    21    22    1
    13    21    23    1
    14     2     3   ar
    15     3     4   ar
    16     4     5   ar
    17     5     6   ar
    18     6     7   ar
    19     7     8   ar
    20     8     9   ar
    21    16    17   ar
    22    17    18   ar
    23    18    13   ar
    24     9     1   ar
    25     9     4   ar
@<TRIPOS>MOLECULE
*****
 23 25 0 0 0
SMALL
GASTEIGER

@<TRIPOS>ATOM
      1 C          62.1900   87.0824   11.5944 C.ar    1  UNL1       -0.0158
      2 C          62.6632   85.7926   12.1966 C.ar    1  UNL1        0.0050
      3 S          63.6330   86.1213   13.2927 S.2     1  UNL1       -0.0915
      4 C          63.7592   87.6141   13.3679 C.ar    1  UNL1        0.0288
      5 C          64.5710   88.5092   14.2565 C.ar    1  UNL1        0.0065
      6 C          64.4910   89.9984   14.0954 C.ar    1  UNL1        0.0005
      7 C          63.5991   90.5924   13.0458 C.ar    1  UNL1        0.0000
      8 C          62.7873   89.6972   12.1572 C.ar    1  UNL1        0.0002
      9 C          62.8674   88.2081   12.3183 C.ar    1  UNL1        0.0025
     10 C          61.2112   87.2219   10.4664 C.3     1  UNL1        0.0463
     11 C          60.0419   88.1523   10.5987 C.3     1  UNL1        0.0095
     12 C          61.9728   84.0593    5.4248 C.3     1  UNL1        0.0521
     13 C          61.7824   84.8499    6.6852 C.ar    1  UNL1        0.0594
     14 C          62.9446   85.0904    7.6025 C.ar    1  UNL1        0.0144
     15 C          62.7542   85.8811    8.8628 C.ar    1  UNL1       -0.0012
     16 C          61.4015   86.4313    9.2060 C.ar    1  UNL1        0.0007
     17 C          60.2393   86.1908    8.2887 C.ar    1  UNL1        0.0944
     18 N          60.4298   85.4001    7.0283 N.ar    1  UNL1       -0.2485
     19 C          62.2407   84.4160   11.7766 C.3     1  UNL1        0.0499
     20 C          63.1335   83.2418   12.0486 C.3     1  UNL1        0.0774
     21 N          62.6922   82.1683   12.9988 N.3     1  UNL1       -0.2700
     22 C          62.2183   82.5329   14.3745 C.3     1  UNL1        0.0897
     23 C          62.7248   80.7303   12.5733 C.3     1  UNL1        0.0897
@<TRIPOS>BOND
     1    12    13    1
     2    13    14   ar
     3    14    15   ar
     4    15    16   ar
     5    16    10    1
     6    10    11    1
     7    10     1    1
     8     1     2   ar
     9     2    19    1
    10    19    20    1
    11    20    21    1
    12    21    22    1
    13    21    23    1
    14     2     3   ar
    15     3     4   ar
    16     4     5   ar
    17     5     6   ar
    18     6     7   ar
    19     7     8   ar
    20     8     9   ar
    21    16    17   ar
    22    17    18   ar
    23    18    13   ar
    24     9     1   ar
    25     9     4   ar
@<TRIPOS>MOLECULE
*****
 23 25 0 0 0
SMALL
GASTEIGER

@<TRIPOS>ATOM
      1 C          62.3028   86.8402   11.7105 C.ar    1  UNL1       -0.0158
      2 C          63.0608   87.9117   12.4366 C.ar    1  UNL1        0.0050
      3 S          63.9543   87.2473   13.4418 S.2     1  UNL1       -0.0915
      4 C          63.7485   85.7652   13.3368 C.ar    1  UNL1        0.0288
      5 C          64.3587   84.6123   14.0773 C.ar    1  UNL1        0.0065
      6 C          63.9481   83.2077   13.7479 C.ar    1  UNL1        0.0005
      7 C          62.9275   82.9561   12.6778 C.ar    1  UNL1        0.0000
      8 C          62.3173   84.1090   11.9373 C.ar    1  UNL1        0.0002
      9 C          62.7278   85.5136   12.2668 C.ar    1  UNL1        0.0025
     10 C          61.2965   87.0571   10.6195 C.3     1  UNL1        0.0463
     11 C          60.1502   88.0008   10.8333 C.3     1  UNL1        0.0095
     12 C          61.8560   84.1506    5.4004 C.3     1  UNL1        0.0521
     13 C          61.7161   84.8772    6.7052 C.ar    1  UNL1        0.0594
     14 C          62.9048   85.0366    7.6061 C.ar    1  UNL1        0.0144
     15 C          62.7649   85.7632    8.9108 C.ar    1  UNL1       -0.0012
     16 C          61.4363   86.3305    9.3148 C.ar    1  UNL1        0.0007
     17 C          60.2476   86.1711    8.4139 C.ar    1  UNL1        0.0944
     18 N          60.3875   85.4445    7.1091 N.ar    1  UNL1       -0.2485
     19 C          62.9455   89.3883   12.1993 C.3     1  UNL1        0.0499
     20 C          63.2453   90.3519   13.3090 C.3     1  UNL1        0.0774
     21 N          64.5505   91.0908   13.3286 N.3     1  UNL1       -0.2700
     22 C          65.5139   90.8816   14.4592 C.3     1  UNL1        0.0897
     23 C          64.8924   92.0389   12.2177 C.3     1  UNL1        0.0897
@<TRIPOS>BOND
     1    12    13    1
     2    13    14   ar
     3    14    15   ar
     4    15    16   ar
     5    16    10    1
     6    10    11    1
     7    10     1    1
     8     1     2   ar
     9     2    19    1
    10    19    20    1
    11    20    21    1
    12    21    22    1
    13    21    23    1
    14     2     3   ar
    15     3     4   ar
    16     4     5   ar
    17     5     6   ar
    18     6     7   ar
    19     7     8   ar
    20     8     9   ar
    21    16    17   ar
    22    17    18   ar
    23    18    13   ar
    24     9     1   ar
    25     9     4   ar
@<TRIPOS>MOLECULE
*****
 23 25 0 0 0
SMALL
GASTEIGER

@<TRIPOS>ATOM
      1 C          63.4124   85.8046   12.8331 C.ar    1  UNL1       -0.0158
      2 C          63.8928   85.1327   14.0852 C.ar    1  UNL1        0.0050
      3 S          64.3197   86.1996   15.0493 S.2     1  UNL1       -0.0915
      4 C          64.1031   87.5310   14.3930 C.ar    1  UNL1        0.0288
      5 C          64.3441   88.9340   14.8656 C.ar    1  UNL1        0.0065
      6 C          64.0243   90.0929   13.9686 C.ar    1  UNL1        0.0005
      7 C          63.4636   89.8487   12.5989 C.ar    1  UNL1        0.0000
      8 C          63.2227   88.4457   12.1263 C.ar    1  UNL1        0.0002
      9 C          63.5424   87.2868   13.0233 C.ar    1  UNL1        0.0025
     10 C          62.8932   85.1154   11.6062 C.3     1  UNL1        0.0463
     11 C          63.2506   83.6825   11.3429 C.3     1  UNL1        0.0095
     12 C          59.3868   88.0893    7.7512 C.3     1  UNL1        0.0521
     13 C          60.2634   87.3458    8.7150 C.ar    1  UNL1        0.0594
     14 C          61.3991   86.5096    8.2041 C.ar    1  UNL1        0.0144
     15 C          62.2757   85.7661    9.1679 C.ar    1  UNL1       -0.0012
     16 C          62.0166   85.8589   10.6425 C.ar    1  UNL1        0.0007
     17 C          60.8810   86.6952   11.1533 C.ar    1  UNL1        0.0944
     18 N          60.0044   87.4386   10.1895 N.ar    1  UNL1       -0.2485
     19 C          63.9383   83.6535   14.3302 C.3     1  UNL1        0.0499
     20 C          62.6971   82.9247   14.7524 C.3     1  UNL1        0.0774
     21 N          62.4025   81.5621   14.1988 N.3     1  UNL1       -0.2700
     22 C          60.9944   81.0450   14.1888 C.3     1  UNL1        0.0897
     23 C          63.5158   80.7167   13.6551 C.3     1  UNL1        0.0897
@<TRIPOS>BOND
     1    12    13    1
     2    13    14   ar
     3    14    15   ar
     4    15    16   ar
     5    16    10    1
     6    10    11    1
     7    10     1    1
     8     1     2   ar
     9     2    19    1
    10    19    20    1
    11    20    21    1
    12    21    22    1
    13    21    23    1
    14     2     3   ar
    15     3     4   ar
    16     4     5   ar
    17     5     6   ar
    18     6     7   ar
    19     7     8   ar
    20     8     9   ar
    21    16    17   ar
    22    17    18   ar
    23    18    13   ar
    24     9     1   ar
    25     9     4   ar
@<TRIPOS>MOLECULE
*****
 23 25 0 0 0
SMALL
GASTEIGER

@<TRIPOS>ATOM
      1 C          61.1162   88.5767   10.2541 C.ar    1  UNL1       -0.0158
      2 C          60.5000   88.3900    8.8993 C.ar    1  UNL1        0.0050
      3 S          60.7524   86.9763    8.4662 S.2     1  UNL1       -0.0915
      4 C          61.5245   86.2892    9.5533 C.ar    1  UNL1        0.0288
      5 C          62.0519   84.8907    9.6798 C.ar    1  UNL1        0.0065
      6 C          62.8040   84.4814   10.9113 C.ar    1  UNL1        0.0005
      7 C          63.0289   85.4705   12.0163 C.ar    1  UNL1        0.0000
      8 C          62.5015   86.8690   11.8898 C.ar    1  UNL1        0.0002
      9 C          61.7493   87.2784   10.6584 C.ar    1  UNL1        0.0025
     10 C          61.1017   89.8400   11.0628 C.3     1  UNL1        0.0463
     11 C          59.8007   90.3982   11.5587 C.3     1  UNL1        0.0095
     12 C          66.2475   92.6605   12.3138 C.3     1  UNL1        0.0521
     13 C          64.9610   91.9554   12.0011 C.ar    1  UNL1        0.0594
     14 C          64.3994   92.0013   10.6110 C.ar    1  UNL1        0.0144
     15 C          63.1129   91.2961   10.2982 C.ar    1  UNL1       -0.0012
     16 C          62.3881   90.5451   11.3756 C.ar    1  UNL1        0.0007
     17 C          62.9498   90.4992   12.7657 C.ar    1  UNL1        0.0944
     18 N          64.2362   91.2044   13.0784 N.ar    1  UNL1       -0.2485
     19 C          59.7613   89.4338    8.1153 C.3     1  UNL1        0.0499
     20 C          59.3845   89.1722    6.6872 C.3     1  UNL1        0.0774
     21 N          59.2397   90.3164    5.7280 N.3     1  UNL1       -0.2700
     22 C          57.8833   90.8918    5.4463 C.3     1  UNL1        0.0897
     23 C          60.4511   90.8851    5.0506 C.3     1  UNL1        0.0897
@<TRIPOS>BOND
     1    12    13    1
     2    13    14   ar
     3    14    15   ar
     4    15    16   ar
     5    16    10    1
     6    10    11    1
     7    10     1    1
     8     1     2   ar
     9     2    19    1
    10    19    20    1
    11    20    21    1
    12    21    22    1
    13    21    23    1
    14     2     3   ar
    15     3     4   ar
    16     4     5   ar
    17     5     6   ar
    18     6     7   ar
    19     7     8   ar
    20     8     9   ar
    21    16    17   ar
    22    17    18   ar
    23    18    13   ar
    24     9     1   ar
    25     9     4   ar
@<TRIPOS>MOLECULE
*****
 23 25 0 0 0
SMALL
GASTEIGER

@<TRIPOS>ATOM
      1 C          62.6522   85.4531   11.2354 C.ar    1  UNL1       -0.0158
      2 C          63.1839   84.8984    9.9472 C.ar    1  UNL1        0.0050
      3 S          63.7115   83.5207   10.2186 S.2     1  UNL1       -0.0915
      4 C          63.5059   83.2241   11.6746 C.ar    1  UNL1        0.0288
      5 C          63.8303   82.0207   12.5092 C.ar    1  UNL1        0.0065
      6 C          63.4999   82.0117   13.9723 C.ar    1  UNL1        0.0005
      7 C          62.8452   83.2060   14.6008 C.ar    1  UNL1        0.0000
      8 C          62.5208   84.4093   13.7661 C.ar    1  UNL1        0.0002
      9 C          62.8512   84.4184   12.3030 C.ar    1  UNL1        0.0025
     10 C          62.0305   86.8053   11.4232 C.3     1  UNL1        0.0463
     11 C          60.6521   87.0766   10.8973 C.3     1  UNL1        0.0095
     12 C          65.0571   91.1286   14.2776 C.3     1  UNL1        0.0521
     13 C          64.3004   90.0478   13.5640 C.ar    1  UNL1        0.0594
     14 C          64.3309   88.6416   14.0852 C.ar    1  UNL1        0.0144
     15 C          63.5742   87.5608   13.3715 C.ar    1  UNL1       -0.0012
     16 C          62.7871   87.8861   12.1367 C.ar    1  UNL1        0.0007
     17 C          62.7567   89.2924   11.6156 C.ar    1  UNL1        0.0944
     18 N          63.5134   90.3732   12.3293 N.ar    1  UNL1       -0.2485
     19 C          63.1873   85.5983    8.6205 C.3     1  UNL1        0.0499
     20 C          62.9116   84.8262    7.3645 C.3     1  UNL1        0.0774
     21 N          61.5461   84.8648    6.7449 N.3     1  UNL1       -0.2700
     22 C          60.4562   85.6753    7.3816 C.3     1  UNL1        0.0897
     23 C          61.2705   84.0929    5.4886 C.3     1  UNL1        0.0897
@<TRIPOS>BOND
     1    12    13    1
     2    13    14   ar
     3    14    15   ar
     4    15    16   ar
     5    16    10    1
     6    10    11    1
     7    10     1    1
     8     1     2   ar
     9     2    19    1
    10    19    20    1
    11    20    21    1
    12    21    22    1
    13    21    23    1
    14     2     3   ar
    15     3     4   ar
    16     4     5   ar
    17     5     6   ar
    18     6     7   ar
    19     7     8   ar
    20     8     9   ar
    21    16    17   ar
    22    17    18   ar
    23    18    13   ar
    24     9     1   ar
    25     9     4   ar
@<TRIPOS>MOLECULE
*****
 23 25 0 0 0
SMALL
GASTEIGER

@<TRIPOS>ATOM
      1 C          63.2376   86.6783   12.6093 C.ar    1  UNL1       -0.0158
      2 C          62.4391   86.8367   11.3495 C.ar    1  UNL1        0.0050
      3 S          62.3046   88.3038   11.0674 S.2     1  UNL1       -0.0915
      4 C          63.0200   89.0521   12.1529 C.ar    1  UNL1        0.0288
      5 C          63.2208   90.5184   12.3966 C.ar    1  UNL1        0.0065
      6 C          63.9983   90.9801   13.5934 C.ar    1  UNL1        0.0005
      7 C          64.5749   89.9755   14.5464 C.ar    1  UNL1        0.0000
      8 C          64.3741   88.5092   14.3026 C.ar    1  UNL1        0.0002
      9 C          63.5967   88.0475   13.1059 C.ar    1  UNL1        0.0025
     10 C          63.6116   85.3789   13.2587 C.3     1  UNL1        0.0463
     11 C          64.1129   85.3638   14.6724 C.3     1  UNL1        0.0095
     12 C          63.1020   80.2412   10.2018 C.3     1  UNL1        0.0521
     13 C          63.2294   81.5256   10.9660 C.ar    1  UNL1        0.0594
     14 C          64.2314   82.5567   10.5382 C.ar    1  UNL1        0.0144
     15 C          64.3587   83.8411   11.3024 C.ar    1  UNL1       -0.0012
     16 C          63.4841   84.0945   12.4945 C.ar    1  UNL1        0.0007
     17 C          62.4822   83.0634   12.9223 C.ar    1  UNL1        0.0944
     18 N          62.3549   81.7790   12.1580 N.ar    1  UNL1       -0.2485
     19 C          61.8743   85.7235   10.5178 C.3     1  UNL1        0.0499
     20 C          62.2389   85.6117    9.0671 C.3     1  UNL1        0.0774
     21 N          61.1793   85.7509    8.0145 N.3     1  UNL1       -0.2700
     22 C          61.2975   84.9914    6.7264 C.3     1  UNL1        0.0897
     23 C          60.0017   86.6496    8.2501 C.3     1  UNL1        0.0897
@<TRIPOS>BOND
     1    12    13    1
     2    13    14   ar
     3    14    15   ar
     4    15    16   ar
     5    16    10    1
     6    10    11    1
     7    10     1    1
     8     1     2   ar
     9     2    19    1
    10    19    20    1
    11    20    21    1
    12    21    22    1
    13    21    23    1
    14     2     3   ar
    15     3     4   ar
    16     4     5   ar
    17     5     6   ar
    18     6     7   ar
    19     7     8   ar
    20     8     9   ar
    21    16    17   ar
    22    17    18   ar
    23    18    13   ar
    24     9     1   ar
    25     9     4   ar
@<TRIPOS>MOLECULE
*****
 23 25 0 0 0
SMALL
GASTEIGER

@<TRIPOS>ATOM
      1 C          63.4703   84.5774   13.8651 C.ar    1  UNL1       -0.0158
      2 C          62.6861   83.9380   14.9725 C.ar    1  UNL1        0.0050
      3 S          62.2538   82.5785   14.5092 S.2     1  UNL1       -0.0915
      4 C          62.7706   82.3776   13.1155 C.ar    1  UNL1        0.0288
      5 C          62.6538   81.2293   12.1575 C.ar    1  UNL1        0.0065
      6 C          63.2889   81.3165   10.8014 C.ar    1  UNL1        0.0005
      7 C          64.0407   82.5519   10.4033 C.ar    1  UNL1        0.0000
      8 C          64.1576   83.7001   11.3613 C.ar    1  UNL1        0.0002
      9 C          63.5225   83.6130   12.7174 C.ar    1  UNL1        0.0025
     10 C          64.0929   85.9416   13.8993 C.3     1  UNL1        0.0463
     11 C          65.2619   86.2102   14.8002 C.3     1  UNL1        0.0095
     12 C          61.9078   90.3245   10.4331 C.3     1  UNL1        0.0521
     13 C          62.4541   89.2288   11.2996 C.ar    1  UNL1        0.0594
     14 C          62.1182   87.7979   11.0002 C.ar    1  UNL1        0.0144
     15 C          62.6645   86.7022   11.8668 C.ar    1  UNL1       -0.0012
     16 C          63.5467   87.0373   13.0328 C.ar    1  UNL1        0.0007
     17 C          63.8826   88.4683   13.3322 C.ar    1  UNL1        0.0944
     18 N          63.3363   89.5640   12.4656 N.ar    1  UNL1       -0.2485
     19 C          62.3869   84.5507   16.3086 C.3     1  UNL1        0.0499
     20 C          61.8530   85.9500   16.3894 C.3     1  UNL1        0.0774
     21 N          62.5141   86.9545   17.2860 N.3     1  UNL1       -0.2700
     22 C          62.9488   88.2802   16.7350 C.3     1  UNL1        0.0897
     23 C          62.7406   86.6332   18.7336 C.3     1  UNL1        0.0897
@<TRIPOS>BOND
     1    12    13    1
     2    13    14   ar
     3    14    15   ar
     4    15    16   ar
     5    16    10    1
     6    10    11    1
     7    10     1    1
     8     1     2   ar
     9     2    19    1
    10    19    20    1
    11    20    21    1
    12    21    22    1
    13    21    23    1
    14     2     3   ar
    15     3     4   ar
    16     4     5   ar
    17     5     6   ar
    18     6     7   ar
    19     7     8   ar
    20     8     9   ar
    21    16    17   ar
    22    17    18   ar
    23    18    13   ar
    24     9     1   ar
    25     9     4   ar
