@<TRIPOS>MOLECULE
*****
 23 26 0 0 0
SMALL
GASTEIGER

@<TRIPOS>ATOM
      1 N          60.8559   87.5477    9.9865 N.pl3   1  UNL1       -0.3025
      2 C          63.5728   83.9607   10.0417 C.ar    1  UNL1        0.0001
      3 C          62.8719   84.3900   11.2964 C.ar    1  UNL1        0.0013
      4 C          61.9663   85.5857   11.2780 C.ar    1  UNL1        0.0145
      5 C          61.7616   86.3520   10.0049 C.ar    1  UNL1        0.0481
      6 C          62.4625   85.9226    8.7501 C.ar    1  UNL1        0.0145
      7 C          63.3681   84.7270    8.7685 C.ar    1  UNL1        0.0013
      8 C          59.9524   87.7861    8.8132 C.3     1  UNL1        0.1045
      9 C          58.9596   86.9573    8.0533 C.3     1  UNL1        0.0900
     10 N          58.6745   88.1233    7.1539 N.3     1  UNL1       -0.2946
     11 C          59.6673   88.9522    7.9137 C.3     1  UNL1        0.0900
     12 H          57.7158   88.4673    7.2092 H       1  UNL1        0.1233
     13 C          60.8539   88.5048   11.1414 C.3     1  UNL1        0.1177
     14 C          61.9772   89.4855   11.3046 C.ar    1  UNL1       -0.0024
     15 C          62.3109   90.4355   10.1928 C.ar    1  UNL1       -0.0026
     16 C          63.4341   91.4162   10.3560 C.ar    1  UNL1       -0.0003
     17 C          64.2236   91.4470   11.6311 C.ar    1  UNL1       -0.0000
     18 C          65.3468   92.4277   11.7943 C.ar    1  UNL1       -0.0000
     19 C          66.1362   92.4584   13.0693 C.ar    1  UNL1       -0.0000
     20 C          65.8024   91.5085   14.1812 C.ar    1  UNL1       -0.0000
     21 C          64.6793   90.5278   14.0180 C.ar    1  UNL1       -0.0000
     22 C          63.8898   90.4970   12.7429 C.ar    1  UNL1       -0.0003
     23 C          62.7666   89.5163   12.5797 C.ar    1  UNL1       -0.0026
@<TRIPOS>BOND
     1     2     3   ar
     2     3     4   ar
     3     4     5   ar
     4     5     1    1
     5     1    13    1
     6    13    14    1
     7    14    15   ar
     8    15    16   ar
     9    16    17   ar
    10    17    18   ar
    11    18    19   ar
    12    19    20   ar
    13    20    21   ar
    14    21    22   ar
    15    22    23   ar
    16     1     8    1
    17     8     9    1
    18     9    10    1
    19    10    11    1
    20     5     6   ar
    21     6     7   ar
    22     7     2   ar
    23    23    14   ar
    24    11     8    1
    25    22    17   ar
    26    10    12    1
@<TRIPOS>MOLECULE
*****
 23 26 0 0 0
SMALL
GASTEIGER

@<TRIPOS>ATOM
      1 N          63.4493   83.4142   12.8927 N.pl3   1  UNL1       -0.3025
      2 C          62.4629   85.5996    9.0846 C.ar    1  UNL1        0.0001
      3 C          61.8250   86.0179   10.3761 C.ar    1  UNL1        0.0013
      4 C          62.1538   85.2894   11.6455 C.ar    1  UNL1        0.0145
      5 C          63.1205   84.1427   11.6233 C.ar    1  UNL1        0.0481
      6 C          63.7584   83.7244   10.3318 C.ar    1  UNL1        0.0145
      7 C          63.4296   84.4528    9.0624 C.ar    1  UNL1        0.0013
      8 C          62.7720   82.1135   13.2080 C.3     1  UNL1        0.1045
      9 C          61.7511   81.6650   14.2113 C.3     1  UNL1        0.0900
     10 N          61.8143   80.2739   13.6538 N.3     1  UNL1       -0.2946
     11 C          62.8352   80.7223   12.6504 C.3     1  UNL1        0.0900
     12 H          60.9392   79.9505   13.2414 H       1  UNL1        0.1233
     13 C          64.4553   83.9865   13.8468 C.3     1  UNL1        0.1177
     14 C          64.1143   85.2027   14.6559 C.ar    1  UNL1       -0.0024
     15 C          63.4643   85.0518   15.9993 C.ar    1  UNL1       -0.0026
     16 C          63.1233   86.2679   16.8084 C.ar    1  UNL1       -0.0003
     17 C          63.4323   87.6351   16.2741 C.ar    1  UNL1       -0.0000
     18 C          63.0913   88.8513   17.0832 C.ar    1  UNL1       -0.0000
     19 C          63.4004   90.2183   16.5489 C.ar    1  UNL1       -0.0000
     20 C          64.0504   90.3693   15.2056 C.ar    1  UNL1       -0.0000
     21 C          64.3914   89.1532   14.3965 C.ar    1  UNL1       -0.0000
     22 C          64.0823   87.7861   14.9307 C.ar    1  UNL1       -0.0003
     23 C          64.4233   86.5698   14.1216 C.ar    1  UNL1       -0.0026
@<TRIPOS>BOND
     1     2     3   ar
     2     3     4   ar
     3     4     5   ar
     4     5     1    1
     5     1    13    1
     6    13    14    1
     7    14    15   ar
     8    15    16   ar
     9    16    17   ar
    10    17    18   ar
    11    18    19   ar
    12    19    20   ar
    13    20    21   ar
    14    21    22   ar
    15    22    23   ar
    16     1     8    1
    17     8     9    1
    18     9    10    1
    19    10    11    1
    20     5     6   ar
    21     6     7   ar
    22     7     2   ar
    23    23    14   ar
    24    11     8    1
    25    22    17   ar
    26    10    12    1
@<TRIPOS>MOLECULE
*****
 23 26 0 0 0
SMALL
GASTEIGER

@<TRIPOS>ATOM
      1 N          61.2646   88.4149   10.9785 N.pl3   1  UNL1       -0.3025
      2 C          60.6744   85.6919    7.4447 C.ar    1  UNL1        0.0001
      3 C          61.9852   85.7009    8.1739 C.ar    1  UNL1        0.0013
      4 C          62.1819   86.6086    9.3518 C.ar    1  UNL1        0.0145
      5 C          61.0679   87.5072    9.8005 C.ar    1  UNL1        0.0481
      6 C          59.7570   87.4981    9.0714 C.ar    1  UNL1        0.0145
      7 C          59.5603   86.5905    7.8935 C.ar    1  UNL1        0.0013
      8 C          60.1848   89.3793   11.3707 C.3     1  UNL1        0.1045
      9 C          59.0513   89.3604   12.3529 C.3     1  UNL1        0.0900
     10 N          58.6577   90.7433   11.9254 N.3     1  UNL1       -0.2946
     11 C          59.7912   90.7622   10.9432 C.3     1  UNL1        0.0900
     12 H          58.7336   91.4444   12.6624 H       1  UNL1        0.1233
     13 C          62.5411   88.3581   11.7641 C.3     1  UNL1        0.1177
     14 C          63.3637   89.5987   11.9493 C.ar    1  UNL1       -0.0024
     15 C          63.5279   90.5660   10.8146 C.ar    1  UNL1       -0.0026
     16 C          64.3504   91.8066   10.9997 C.ar    1  UNL1       -0.0003
     17 C          65.0088   92.0800   12.3195 C.ar    1  UNL1       -0.0000
     18 C          65.8313   93.3206   12.5045 C.ar    1  UNL1       -0.0000
     19 C          66.4897   93.5939   13.8243 C.ar    1  UNL1       -0.0000
     20 C          66.3255   92.6267   14.9590 C.ar    1  UNL1       -0.0000
     21 C          65.5030   91.3861   14.7739 C.ar    1  UNL1       -0.0000
     22 C          64.8446   91.1127   13.4542 C.ar    1  UNL1       -0.0003
     23 C          64.0220   89.8721   13.2690 C.ar    1  UNL1       -0.0026
@<TRIPOS>BOND
     1     2     3   ar
     2     3     4   ar
     3     4     5   ar
     4     5     1    1
     5     1    13    1
     6    13    14    1
     7    14    15   ar
     8    15    16   ar
     9    16    17   ar
    10    17    18   ar
    11    18    19   ar
    12    19    20   ar
    13    20    21   ar
    14    21    22   ar
    15    22    23   ar
    16     1     8    1
    17     8     9    1
    18     9    10    1
    19    10    11    1
    20     5     6   ar
    21     6     7   ar
    22     7     2   ar
    23    23    14   ar
    24    11     8    1
    25    22    17   ar
    26    10    12    1
@<TRIPOS>MOLECULE
*****
 23 26 0 0 0
SMALL
GASTEIGER

@<TRIPOS>ATOM
      1 N          61.4282   89.4678   10.7576 N.pl3   1  UNL1       -0.3025
      2 C          64.9654   91.8914   12.1230 C.ar    1  UNL1        0.0001
      3 C          64.4476   92.0432   10.7235 C.ar    1  UNL1        0.0013
      4 C          63.2685   91.2353   10.2683 C.ar    1  UNL1        0.0145
      5 C          62.6073   90.2757   11.2127 C.ar    1  UNL1        0.0481
      6 C          63.1252   90.1239   12.6123 C.ar    1  UNL1        0.0145
      7 C          64.3042   90.9317   13.0674 C.ar    1  UNL1        0.0013
      8 C          60.1023   89.6254   11.4409 C.3     1  UNL1        0.1045
      9 C          59.1083   90.7398   11.5834 C.3     1  UNL1        0.0900
     10 N          58.2271   89.8484   12.4073 N.3     1  UNL1       -0.2946
     11 C          59.2210   88.7340   12.2648 C.3     1  UNL1        0.0900
     12 H          57.3197   89.6537   11.9841 H       1  UNL1        0.1233
     13 C          61.5752   88.5022    9.6191 C.3     1  UNL1        0.1177
     14 C          62.1160   87.1254    9.8684 C.ar    1  UNL1       -0.0024
     15 C          62.5854   86.2845    8.7184 C.ar    1  UNL1       -0.0026
     16 C          63.1262   84.9078    8.9677 C.ar    1  UNL1       -0.0003
     17 C          63.1976   84.3719   10.3669 C.ar    1  UNL1       -0.0000
     18 C          63.7384   82.9952   10.6162 C.ar    1  UNL1       -0.0000
     19 C          63.8097   82.4595   12.0154 C.ar    1  UNL1       -0.0000
     20 C          63.3403   83.3004   13.1653 C.ar    1  UNL1       -0.0000
     21 C          62.7995   84.6771   12.9161 C.ar    1  UNL1       -0.0000
     22 C          62.7281   85.2129   11.5169 C.ar    1  UNL1       -0.0003
     23 C          62.1873   86.5897   11.2676 C.ar    1  UNL1       -0.0026
@<TRIPOS>BOND
     1     2     3   ar
     2     3     4   ar
     3     4     5   ar
     4     5     1    1
     5     1    13    1
     6    13    14    1
     7    14    15   ar
     8    15    16   ar
     9    16    17   ar
    10    17    18   ar
    11    18    19   ar
    12    19    20   ar
    13    20    21   ar
    14    21    22   ar
    15    22    23   ar
    16     1     8    1
    17     8     9    1
    18     9    10    1
    19    10    11    1
    20     5     6   ar
    21     6     7   ar
    22     7     2   ar
    23    23    14   ar
    24    11     8    1
    25    22    17   ar
    26    10    12    1
@<TRIPOS>MOLECULE
*****
 23 26 0 0 0
SMALL
GASTEIGER

@<TRIPOS>ATOM
      1 N          61.9151   86.5717   10.9754 N.pl3   1  UNL1       -0.3025
      2 C          61.4488   85.0951    6.7501 C.ar    1  UNL1        0.0001
      3 C          60.2995   85.7675    7.4408 C.ar    1  UNL1        0.0013
      4 C          60.4549   86.2597    8.8492 C.ar    1  UNL1        0.0145
      5 C          61.7596   86.0795    9.5669 C.ar    1  UNL1        0.0481
      6 C          62.9090   85.4071    8.8763 C.ar    1  UNL1        0.0145
      7 C          62.7535   84.9149    7.4679 C.ar    1  UNL1        0.0013
      8 C          62.5894   85.7096   12.0010 C.3     1  UNL1        0.1045
      9 C          63.4489   85.9667   13.2032 C.3     1  UNL1        0.0900
     10 N          63.5431   84.4904   13.4515 N.3     1  UNL1       -0.2946
     11 C          62.6836   84.2333   12.2493 C.3     1  UNL1        0.0900
     12 H          63.1273   84.1890   14.3328 H       1  UNL1        0.1233
     13 C          61.3962   87.9261   11.3581 C.3     1  UNL1        0.1177
     14 C          62.3215   89.1067   11.3742 C.ar    1  UNL1       -0.0024
     15 C          62.4210   89.9980   10.1718 C.ar    1  UNL1       -0.0026
     16 C          63.3461   91.1785   10.1878 C.ar    1  UNL1       -0.0003
     17 C          64.1719   91.4678   11.4062 C.ar    1  UNL1       -0.0000
     18 C          65.0971   92.6484   11.4222 C.ar    1  UNL1       -0.0000
     19 C          65.9229   92.9376   12.6406 C.ar    1  UNL1       -0.0000
     20 C          65.8234   92.0463   13.8430 C.ar    1  UNL1       -0.0000
     21 C          64.8982   90.8657   13.8270 C.ar    1  UNL1       -0.0000
     22 C          64.0725   90.5765   12.6086 C.ar    1  UNL1       -0.0003
     23 C          63.1472   89.3959   12.5925 C.ar    1  UNL1       -0.0026
@<TRIPOS>BOND
     1     2     3   ar
     2     3     4   ar
     3     4     5   ar
     4     5     1    1
     5     1    13    1
     6    13    14    1
     7    14    15   ar
     8    15    16   ar
     9    16    17   ar
    10    17    18   ar
    11    18    19   ar
    12    19    20   ar
    13    20    21   ar
    14    21    22   ar
    15    22    23   ar
    16     1     8    1
    17     8     9    1
    18     9    10    1
    19    10    11    1
    20     5     6   ar
    21     6     7   ar
    22     7     2   ar
    23    23    14   ar
    24    11     8    1
    25    22    17   ar
    26    10    12    1
@<TRIPOS>MOLECULE
*****
 23 26 0 0 0
SMALL
GASTEIGER

@<TRIPOS>ATOM
      1 N          60.7695   87.6780    9.9787 N.pl3   1  UNL1       -0.3025
      2 C          63.4790   84.0865   10.0810 C.ar    1  UNL1        0.0001
      3 C          63.3042   84.8581    8.8066 C.ar    1  UNL1        0.0013
      4 C          62.4010   86.0553    8.7725 C.ar    1  UNL1        0.0145
      5 C          61.6727   86.4808   10.0128 C.ar    1  UNL1        0.0481
      6 C          61.8474   85.7093   11.2872 C.ar    1  UNL1        0.0145
      7 C          62.7506   84.5122   11.3213 C.ar    1  UNL1        0.0013
      8 C          59.9780   87.9854    8.7421 C.3     1  UNL1        0.1045
      9 C          59.7897   89.1963    7.8771 C.3     1  UNL1        0.0900
     10 N          58.8587   88.4202    6.9934 N.3     1  UNL1       -0.2946
     11 C          59.0471   87.2093    7.8584 C.3     1  UNL1        0.0900
     12 H          59.1926   88.3045    6.0365 H       1  UNL1        0.1233
     13 C          60.6577   88.5677   11.1811 C.3     1  UNL1        0.1177
     14 C          61.8381   89.3798   11.6255 C.ar    1  UNL1       -0.0024
     15 C          62.4081   89.1849   12.9993 C.ar    1  UNL1       -0.0026
     16 C          63.5884   89.9969   13.4437 C.ar    1  UNL1       -0.0003
     17 C          64.1987   91.0039   12.5143 C.ar    1  UNL1       -0.0000
     18 C          65.3790   91.8159   12.9587 C.ar    1  UNL1       -0.0000
     19 C          65.9893   92.8227   12.0293 C.ar    1  UNL1       -0.0000
     20 C          65.4193   93.0176   10.6556 C.ar    1  UNL1       -0.0000
     21 C          64.2390   92.2056   10.2112 C.ar    1  UNL1       -0.0000
     22 C          63.6287   91.1987   11.1406 C.ar    1  UNL1       -0.0003
     23 C          62.4484   90.3866   10.6962 C.ar    1  UNL1       -0.0026
@<TRIPOS>BOND
     1     2     3   ar
     2     3     4   ar
     3     4     5   ar
     4     5     1    1
     5     1    13    1
     6    13    14    1
     7    14    15   ar
     8    15    16   ar
     9    16    17   ar
    10    17    18   ar
    11    18    19   ar
    12    19    20   ar
    13    20    21   ar
    14    21    22   ar
    15    22    23   ar
    16     1     8    1
    17     8     9    1
    18     9    10    1
    19    10    11    1
    20     5     6   ar
    21     6     7   ar
    22     7     2   ar
    23    23    14   ar
    24    11     8    1
    25    22    17   ar
    26    10    12    1
@<TRIPOS>MOLECULE
*****
 23 26 0 0 0
SMALL
GASTEIGER

@<TRIPOS>ATOM
      1 N          61.2965   88.2907   11.0523 N.pl3   1  UNL1       -0.3025
      2 C          60.7658   85.6717    7.4315 C.ar    1  UNL1        0.0001
      3 C          59.6394   86.5467    7.8958 C.ar    1  UNL1        0.0013
      4 C          59.8163   87.4197    9.1028 C.ar    1  UNL1        0.0145
      5 C          61.1196   87.4177    9.8453 C.ar    1  UNL1        0.0481
      6 C          62.2460   86.5427    9.3810 C.ar    1  UNL1        0.0145
      7 C          62.0692   85.6698    8.1741 C.ar    1  UNL1        0.0013
      8 C          60.2834   89.3516   11.3655 C.3     1  UNL1        0.1045
      9 C          59.9673   90.7114   10.8168 C.3     1  UNL1        0.0900
     10 N          58.8508   90.8520   11.8085 N.3     1  UNL1       -0.2946
     11 C          59.1669   89.4923   12.3572 C.3     1  UNL1        0.0900
     12 H          57.9253   90.9257   11.3859 H       1  UNL1        0.1233
     13 C          62.4864   88.1027   11.9460 C.3     1  UNL1        0.1177
     14 C          63.3450   89.2780   12.3088 C.ar    1  UNL1       -0.0024
     15 C          63.9245   89.3861   13.6881 C.ar    1  UNL1       -0.0026
     16 C          64.7830   90.5613   14.0510 C.ar    1  UNL1       -0.0003
     17 C          65.0621   91.6286   13.0346 C.ar    1  UNL1       -0.0000
     18 C          65.9206   92.8038   13.3974 C.ar    1  UNL1       -0.0000
     19 C          66.1997   93.8710   12.3810 C.ar    1  UNL1       -0.0000
     20 C          65.6202   93.7629   11.0017 C.ar    1  UNL1       -0.0000
     21 C          64.7617   92.5877   10.6388 C.ar    1  UNL1       -0.0000
     22 C          64.4826   91.5205   11.6552 C.ar    1  UNL1       -0.0003
     23 C          63.6241   90.3452   11.2924 C.ar    1  UNL1       -0.0026
@<TRIPOS>BOND
     1     2     3   ar
     2     3     4   ar
     3     4     5   ar
     4     5     1    1
     5     1    13    1
     6    13    14    1
     7    14    15   ar
     8    15    16   ar
     9    16    17   ar
    10    17    18   ar
    11    18    19   ar
    12    19    20   ar
    13    20    21   ar
    14    21    22   ar
    15    22    23   ar
    16     1     8    1
    17     8     9    1
    18     9    10    1
    19    10    11    1
    20     5     6   ar
    21     6     7   ar
    22     7     2   ar
    23    23    14   ar
    24    11     8    1
    25    22    17   ar
    26    10    12    1
@<TRIPOS>MOLECULE
*****
 23 26 0 0 0
SMALL
GASTEIGER

@<TRIPOS>ATOM
      1 N          61.8750   87.0811    9.2776 N.pl3   1  UNL1       -0.3025
      2 C          62.9242   90.6423   11.8209 C.ar    1  UNL1        0.0001
      3 C          62.4531   90.8405   10.4106 C.ar    1  UNL1        0.0013
      4 C          62.1034   89.6534    9.5629 C.ar    1  UNL1        0.0145
      5 C          62.2247   88.2682   10.1254 C.ar    1  UNL1        0.0481
      6 C          62.6958   88.0700   11.5356 C.ar    1  UNL1        0.0145
      7 C          63.0456   89.2570   12.3834 C.ar    1  UNL1        0.0013
      8 C          60.4935   86.9465    8.7090 C.3     1  UNL1        0.1045
      9 C          59.1827   87.6411    8.9312 C.3     1  UNL1        0.0900
     10 N          58.5398   86.7561    7.9049 N.3     1  UNL1       -0.2946
     11 C          59.8505   86.0614    7.6828 C.3     1  UNL1        0.0900
     12 H          58.1885   87.2540    7.0870 H       1  UNL1        0.1233
     13 C          62.9068   86.0288    8.9985 C.3     1  UNL1        0.1177
     14 C          63.0585   84.8618    9.9287 C.ar    1  UNL1       -0.0024
     15 C          63.7026   83.5962    9.4454 C.ar    1  UNL1       -0.0026
     16 C          63.8543   82.4293   10.3755 C.ar    1  UNL1       -0.0003
     17 C          63.3619   82.5278   11.7890 C.ar    1  UNL1       -0.0000
     18 C          63.5136   81.3609   12.7192 C.ar    1  UNL1       -0.0000
     19 C          63.0213   81.4595   14.1326 C.ar    1  UNL1       -0.0000
     20 C          62.3772   82.7250   14.6159 C.ar    1  UNL1       -0.0000
     21 C          62.2255   83.8920   13.6858 C.ar    1  UNL1       -0.0000
     22 C          62.7178   83.7934   12.2723 C.ar    1  UNL1       -0.0003
     23 C          62.5661   84.9604   11.3421 C.ar    1  UNL1       -0.0026
@<TRIPOS>BOND
     1     2     3   ar
     2     3     4   ar
     3     4     5   ar
     4     5     1    1
     5     1    13    1
     6    13    14    1
     7    14    15   ar
     8    15    16   ar
     9    16    17   ar
    10    17    18   ar
    11    18    19   ar
    12    19    20   ar
    13    20    21   ar
    14    21    22   ar
    15    22    23   ar
    16     1     8    1
    17     8     9    1
    18     9    10    1
    19    10    11    1
    20     5     6   ar
    21     6     7   ar
    22     7     2   ar
    23    23    14   ar
    24    11     8    1
    25    22    17   ar
    26    10    12    1
@<TRIPOS>MOLECULE
*****
 23 26 0 0 0
SMALL
GASTEIGER

@<TRIPOS>ATOM
      1 N          63.3059   83.1944   13.0677 N.pl3   1  UNL1       -0.3025
      2 C          63.5131   86.1348   16.4680 C.ar    1  UNL1        0.0001
      3 C          62.4137   85.1153   16.4240 C.ar    1  UNL1        0.0013
      4 C          62.3446   84.1352   15.2905 C.ar    1  UNL1        0.0145
      5 C          63.3750   84.1746   14.2012 C.ar    1  UNL1        0.0481
      6 C          64.4745   85.1940   14.2452 C.ar    1  UNL1        0.0145
      7 C          64.5436   86.1741   15.3786 C.ar    1  UNL1        0.0013
      8 C          62.6452   81.8627   13.2670 C.3     1  UNL1        0.1045
      9 C          61.5873   81.3307   14.1878 C.3     1  UNL1        0.0900
     10 N          61.7107   79.9793   13.5488 N.3     1  UNL1       -0.2946
     11 C          62.7685   80.5112   12.6280 C.3     1  UNL1        0.0900
     12 H          60.8648   79.6646   13.0735 H       1  UNL1        0.1233
     13 C          63.8977   83.5462   11.7350 C.3     1  UNL1        0.1177
     14 C          63.1514   84.4488   10.7977 C.ar    1  UNL1       -0.0024
     15 C          63.3465   84.3181    9.3162 C.ar    1  UNL1       -0.0026
     16 C          62.6003   85.2207    8.3789 C.ar    1  UNL1       -0.0003
     17 C          61.6589   86.2539    8.9231 C.ar    1  UNL1       -0.0000
     18 C          60.9126   87.1565    7.9859 C.ar    1  UNL1       -0.0000
     19 C          59.9712   88.1897    8.5301 C.ar    1  UNL1       -0.0000
     20 C          59.7761   88.3203   10.0116 C.ar    1  UNL1       -0.0000
     21 C          60.5223   87.4178   10.9489 C.ar    1  UNL1       -0.0000
     22 C          61.4637   86.3846   10.4046 C.ar    1  UNL1       -0.0003
     23 C          62.2100   85.4820   11.3419 C.ar    1  UNL1       -0.0026
@<TRIPOS>BOND
     1     2     3   ar
     2     3     4   ar
     3     4     5   ar
     4     5     1    1
     5     1    13    1
     6    13    14    1
     7    14    15   ar
     8    15    16   ar
     9    16    17   ar
    10    17    18   ar
    11    18    19   ar
    12    19    20   ar
    13    20    21   ar
    14    21    22   ar
    15    22    23   ar
    16     1     8    1
    17     8     9    1
    18     9    10    1
    19    10    11    1
    20     5     6   ar
    21     6     7   ar
    22     7     2   ar
    23    23    14   ar
    24    11     8    1
    25    22    17   ar
    26    10    12    1
