@<TRIPOS>MOLECULE
*****
 28 30 0 0 0
SMALL
GASTEIGER

@<TRIPOS>ATOM
      1 C          62.9636   88.0546   12.0800 C.2     1  UNL1        0.0000
      2 C          63.1295   86.6731   12.6403 C.2     1  UNL1        0.0004
      3 C          62.4017   85.5187   12.0176 C.2     1  UNL1        0.0061
      4 C          62.5677   84.1372   12.5780 C.2     1  UNL1        0.0688
      5 C          63.4613   83.9101   13.7611 C.2     1  UNL1        0.2218
      6 N          63.6273   82.5286   14.3215 N.2     1  UNL1       -0.1771
      7 C          62.8995   81.3743   13.6987 C.3     1  UNL1        0.4026
      8 C          64.5209   82.3015   15.5046 C.3     1  UNL1        0.4026
      9 C          64.1891   85.0645   14.3838 C.2     1  UNL1        0.0688
     10 C          64.0232   86.4459   13.8235 C.2     1  UNL1        0.0061
     11 C          65.1468   91.5176   13.9483 C.ar    1  UNL1        0.0479
     12 C          64.9758   90.2384   14.7128 C.ar    1  UNL1        0.0145
     13 C          64.2481   89.0841   14.0900 C.ar    1  UNL1        0.0013
     14 C          63.6913   89.2089   12.7028 C.ar    1  UNL1        0.0001
     15 C          63.8623   90.4881   11.9383 C.ar    1  UNL1        0.0013
     16 C          64.5901   91.6424   12.5611 C.ar    1  UNL1        0.0145
     17 C          66.0380   92.7399   16.0606 C.3     1  UNL1        0.1122
     18 N          65.8746   92.6720   14.5711 N.pl3   1  UNL1       -0.3041
     19 C          66.4389   93.7584   13.7044 C.3     1  UNL1        0.1122
     20 C          62.0700   88.2816   10.8969 C.ar    1  UNL1        0.0001
     21 C          61.1309   89.4513   10.8798 C.ar    1  UNL1        0.0013
     22 C          60.2373   89.6784    9.6967 C.ar    1  UNL1        0.0145
     23 C          60.2826   88.7359    8.5307 C.ar    1  UNL1        0.0479
     24 C          61.2215   87.5663    8.5477 C.ar    1  UNL1        0.0145
     25 C          62.1152   87.3391    9.7309 C.ar    1  UNL1        0.0013
     26 N          59.3889   88.9630    7.3475 N.pl3   1  UNL1       -0.3041
     27 C          58.2766   88.0010    7.0521 C.3     1  UNL1        0.1122
     28 C          59.6075   90.1522    6.4598 C.3     1  UNL1        0.1122
@<TRIPOS>UNITY_ATOM_ATTR
6 1
charge 1
@<TRIPOS>BOND
     1    17    18    1
     2    18    19    1
     3    18    11    1
     4    11    12   ar
     5    12    13   ar
     6    13    14   ar
     7    14     1    1
     8     1     2    2
     9     2     3    1
    10     3     4    2
    11     4     5    1
    12     5     6    2
    13     6     7    1
    14     6     8    1
    15     5     9    1
    16     9    10    2
    17     1    20    1
    18    20    21   ar
    19    21    22   ar
    20    22    23   ar
    21    23    26    1
    22    26    27    1
    23    26    28    1
    24    23    24   ar
    25    24    25   ar
    26    14    15   ar
    27    15    16   ar
    28    16    11   ar
    29    10     2    1
    30    25    20   ar
@<TRIPOS>MOLECULE
*****
 28 30 0 0 0
SMALL
GASTEIGER

@<TRIPOS>ATOM
      1 C          62.9668   88.0466   12.0847 C.2     1  UNL1        0.0000
      2 C          63.1342   86.6629   12.6390 C.2     1  UNL1        0.0004
      3 C          64.0269   86.4318   13.8221 C.2     1  UNL1        0.0061
      4 C          64.1943   85.0480   14.3764 C.2     1  UNL1        0.0688
      5 C          63.4690   83.8954   13.7476 C.2     1  UNL1        0.2218
      6 N          63.6364   82.5117   14.3019 N.2     1  UNL1       -0.1771
      7 C          64.5291   82.2806   15.4850 C.3     1  UNL1        0.4026
      8 C          62.9111   81.3591   13.6731 C.3     1  UNL1        0.4026
      9 C          62.5763   84.1265   12.5645 C.2     1  UNL1        0.0688
     10 C          62.4089   85.5102   12.0102 C.2     1  UNL1        0.0061
     11 C          60.2887   88.7399    8.5354 C.ar    1  UNL1        0.0479
     12 C          60.2511   89.6853    9.6994 C.ar    1  UNL1        0.0145
     13 C          61.1438   89.4542   10.8824 C.ar    1  UNL1        0.0013
     14 C          62.0741   88.2777   10.9016 C.ar    1  UNL1        0.0001
     15 C          62.1118   87.3324    9.7376 C.ar    1  UNL1        0.0013
     16 C          61.2191   87.5635    8.5545 C.ar    1  UNL1        0.0145
     17 C          58.2882   88.0064    7.0490 C.3     1  UNL1        0.1122
     18 N          59.3961   88.9710    7.3523 N.pl3   1  UNL1       -0.3041
     19 C          59.6112   90.1667    6.4726 C.3     1  UNL1        0.1122
     20 C          63.6921   89.1992   12.7134 C.ar    1  UNL1        0.0001
     21 C          64.2538   89.0665   14.0980 C.ar    1  UNL1        0.0013
     22 C          64.9791   90.2191   14.7268 C.ar    1  UNL1        0.0145
     23 C          65.1428   91.5045   13.9710 C.ar    1  UNL1        0.0479
     24 C          64.5812   91.6372   12.5865 C.ar    1  UNL1        0.0145
     25 C          63.8558   90.4846   11.9577 C.ar    1  UNL1        0.0013
     26 N          65.8682   92.6571   14.5999 N.pl3   1  UNL1       -0.3041
     27 C          66.0288   92.7191   16.0899 C.3     1  UNL1        0.1122
     28 C          66.4328   93.7477   13.7386 C.3     1  UNL1        0.1122
@<TRIPOS>UNITY_ATOM_ATTR
6 1
charge 1
@<TRIPOS>BOND
     1    17    18    1
     2    18    19    1
     3    18    11    1
     4    11    12   ar
     5    12    13   ar
     6    13    14   ar
     7    14     1    1
     8     1     2    2
     9     2     3    1
    10     3     4    2
    11     4     5    1
    12     5     6    2
    13     6     7    1
    14     6     8    1
    15     5     9    1
    16     9    10    2
    17     1    20    1
    18    20    21   ar
    19    21    22   ar
    20    22    23   ar
    21    23    26    1
    22    26    27    1
    23    26    28    1
    24    23    24   ar
    25    24    25   ar
    26    14    15   ar
    27    15    16   ar
    28    16    11   ar
    29    10     2    1
    30    25    20   ar
