@<TRIPOS>MOLECULE
*****
 38 42 0 0 0
SMALL
GASTEIGER

@<TRIPOS>ATOM
      1 C          64.1637   88.5429   14.3984 C.3     1  UNL1        0.2330
      2 C          63.7702   87.7331   15.5981 C.ar    1  UNL1        0.0327
      3 C          63.1348   88.4037   16.7800 C.ar    1  UNL1       -0.0196
      4 C          62.8930   89.8839   16.7621 C.3     1  UNL1        0.0309
      5 C          62.7412   87.5939   17.9797 C.ar    1  UNL1        0.0162
      6 C          62.9830   86.1136   17.9976 C.ar    1  UNL1        0.0982
      7 N          63.6184   85.4431   16.8158 N.ar    1  UNL1       -0.2464
      8 C          64.0120   86.2529   15.6160 C.ar    1  UNL1        0.0811
      9 C          64.6473   85.5824   14.4342 C.3     1  UNL1        0.1545
     10 N          63.8158   84.7390   13.5137 N.ar    1  UNL1       -0.2884
     11 C          63.2773   85.3242   12.2419 C.ar    1  UNL1        0.0787
     12 C          62.4458   84.4808   11.3214 C.ar    1  UNL1        0.0188
     13 C          62.1527   83.0523   11.6727 C.ar    1  UNL1        0.0102
     14 C          62.6912   82.4671   12.9446 C.ar    1  UNL1        0.1274
     15 C          63.5227   83.3105   13.8651 C.ar    1  UNL1        0.2651
     16 O          64.0612   82.7253   15.1369 O.2     1  UNL1       -0.2670
     17 C          62.3982   81.0386   13.2959 C.3     1  UNL1        0.4230
     18 F          62.1052   79.6101   13.6473 F       1  UNL1       -0.1657
     19 F          63.4769   80.5864   12.3569 F       1  UNL1       -0.1657
     20 F          61.3194   81.4908   14.2349 F       1  UNL1       -0.1657
     21 O          63.1522   89.4180   13.7195 O.3     1  UNL1       -0.4691
     22 C          66.7412   92.7625   15.9965 C.3     1  UNL1        0.0521
     23 C          66.1677   92.6356   14.6162 C.ar    1  UNL1        0.0595
     24 C          66.5994   93.5813   13.5348 C.ar    1  UNL1        0.0163
     25 C          66.0260   93.4545   12.1546 C.ar    1  UNL1        0.0217
     26 C          65.0208   92.3819   11.8557 C.ar    1  UNL1        0.0222
     27 C          64.4473   92.2551   10.4755 C.ar    1  UNL1        0.0017
     28 C          63.4422   91.1826   10.1766 C.ar    1  UNL1        0.0032
     29 C          63.0105   90.2369   11.2580 C.ar    1  UNL1        0.0385
     30 C          63.5839   90.3637   12.6382 C.ar    1  UNL1        0.1565
     31 C          64.5891   91.4362   12.9371 C.ar    1  UNL1        0.1147
     32 N          65.1626   91.5631   14.3173 N.ar    1  UNL1       -0.2466
     33 C          66.4577   94.4001   11.0733 C.ar    1  UNL1        0.0986
     34 N          66.0893   95.8507   10.9717 N.ar    1  UNL1       -0.2354
     35 C          66.7375   96.4084    9.7393 C.ar    1  UNL1        0.1353
     36 S          67.5065   95.3025    9.0792 S.2     1  UNL1       -0.0530
     37 C          67.3335   94.0614    9.9036 C.ar    1  UNL1        0.1060
     38 CL         67.9314   92.7174    9.6099 Cl      1  UNL1       -0.0735
@<TRIPOS>BOND
     1    22    23    1
     2    23    24   ar
     3    24    25   ar
     4    25    33    1
     5    33    34   ar
     6    34    35   ar
     7    35    36   ar
     8    36    37   ar
     9    37    38    1
    10    25    26   ar
    11    26    27   ar
    12    27    28   ar
    13    28    29   ar
    14    29    30   ar
    15    30    21    1
    16    21     1    1
    17     1     2    1
    18     2     3   ar
    19     3     4    1
    20     3     5   ar
    21     5     6   ar
    22     6     7   ar
    23     7     8   ar
    24     8     9    1
    25     9    10    1
    26    10    11   ar
    27    11    12   ar
    28    12    13   ar
    29    13    14   ar
    30    14    17    1
    31    17    18    1
    32    17    19    1
    33    17    20    1
    34    14    15   ar
    35    15    16    2
    36    30    31   ar
    37    31    32   ar
    38    32    23   ar
    39    37    33   ar
    40    31    26   ar
    41     8     2   ar
    42    15    10   ar
@<TRIPOS>MOLECULE
*****
 38 42 0 0 0
SMALL
GASTEIGER

@<TRIPOS>ATOM
      1 C          64.2546   88.7236   14.5085 C.3     1  UNL1        0.2330
      2 C          63.8031   87.8189   15.6165 C.ar    1  UNL1        0.0327
      3 C          63.0984   88.3903   16.8112 C.ar    1  UNL1       -0.0196
      4 C          62.8452   89.8662   16.8977 C.3     1  UNL1        0.0309
      5 C          62.6469   87.4856   17.9192 C.ar    1  UNL1        0.0162
      6 C          62.9001   86.0096   17.8326 C.ar    1  UNL1        0.0982
      7 N          63.6047   85.4383   16.6380 N.ar    1  UNL1       -0.2464
      8 C          64.0562   86.3430   15.5300 C.ar    1  UNL1        0.0811
      9 C          64.7609   85.7718   14.3354 C.3     1  UNL1        0.1545
     10 N          63.9974   84.9596   13.3316 N.ar    1  UNL1       -0.2884
     11 C          64.0296   83.4614   13.3985 C.ar    1  UNL1        0.0787
     12 C          63.2662   82.6493   12.3948 C.ar    1  UNL1        0.0188
     13 C          62.4705   83.3353   11.3241 C.ar    1  UNL1        0.0102
     14 C          62.4382   84.8334   11.2572 C.ar    1  UNL1        0.1274
     15 C          63.2017   85.6456   12.2610 C.ar    1  UNL1        0.2651
     16 O          63.1695   87.1438   12.1941 O.2     1  UNL1       -0.2670
     17 C          61.6425   85.5194   10.1866 C.3     1  UNL1        0.4230
     18 F          60.8468   86.2054    9.1160 F       1  UNL1       -0.1657
     19 F          62.5442   84.9333    9.1409 F       1  UNL1       -0.1657
     20 F          60.7409   86.1055   11.2323 F       1  UNL1       -0.1657
     21 O          63.3237   89.7671   13.9658 O.3     1  UNL1       -0.4691
     22 C          67.1079   93.0780   15.9577 C.3     1  UNL1        0.0521
     23 C          66.4869   92.9035   14.6034 C.ar    1  UNL1        0.0595
     24 C          66.9203   93.7745   13.4617 C.ar    1  UNL1        0.0163
     25 C          66.2994   93.6001   12.1075 C.ar    1  UNL1        0.0217
     26 C          65.2449   92.5546   11.8949 C.ar    1  UNL1        0.0222
     27 C          64.6240   92.3801   10.5407 C.ar    1  UNL1        0.0017
     28 C          63.5696   91.3347   10.3282 C.ar    1  UNL1        0.0032
     29 C          63.1362   90.4636   11.4699 C.ar    1  UNL1        0.0385
     30 C          63.7571   90.6381   12.8241 C.ar    1  UNL1        0.1565
     31 C          64.8115   91.6835   13.0366 C.ar    1  UNL1        0.1147
     32 N          65.4325   91.8580   14.3909 N.ar    1  UNL1       -0.2466
     33 C          66.7328   94.4711   10.9658 C.ar    1  UNL1        0.0986
     34 N          67.4853   94.0202    9.7491 N.ar    1  UNL1       -0.2354
     35 C          67.7074   95.2164    8.8717 C.ar    1  UNL1        0.1353
     36 S          67.0922   96.4066    9.5462 S.2     1  UNL1       -0.0530
     37 C          66.4899   95.9460   10.8404 C.ar    1  UNL1        0.1060
     38 CL         65.7709   96.8088   11.8347 Cl      1  UNL1       -0.0735
@<TRIPOS>BOND
     1    22    23    1
     2    23    24   ar
     3    24    25   ar
     4    25    33    1
     5    33    34   ar
     6    34    35   ar
     7    35    36   ar
     8    36    37   ar
     9    37    38    1
    10    25    26   ar
    11    26    27   ar
    12    27    28   ar
    13    28    29   ar
    14    29    30   ar
    15    30    21    1
    16    21     1    1
    17     1     2    1
    18     2     3   ar
    19     3     4    1
    20     3     5   ar
    21     5     6   ar
    22     6     7   ar
    23     7     8   ar
    24     8     9    1
    25     9    10    1
    26    10    11   ar
    27    11    12   ar
    28    12    13   ar
    29    13    14   ar
    30    14    17    1
    31    17    18    1
    32    17    19    1
    33    17    20    1
    34    14    15   ar
    35    15    16    2
    36    30    31   ar
    37    31    32   ar
    38    32    23   ar
    39    37    33   ar
    40    31    26   ar
    41     8     2   ar
    42    15    10   ar
@<TRIPOS>MOLECULE
*****
 38 42 0 0 0
SMALL
GASTEIGER

@<TRIPOS>ATOM
      1 C          64.4708   88.5238   14.8539 C.3     1  UNL1        0.2330
      2 C          63.8174   87.4750   15.7043 C.ar    1  UNL1        0.0327
      3 C          63.0601   87.8731   16.9364 C.ar    1  UNL1       -0.0196
      4 C          62.9562   89.3200   17.3181 C.3     1  UNL1        0.0309
      5 C          62.4066   86.8243   17.7867 C.ar    1  UNL1        0.0162
      6 C          62.5106   85.3774   17.4049 C.ar    1  UNL1        0.0982
      7 N          63.2678   84.9793   16.1729 N.ar    1  UNL1       -0.2464
      8 C          63.9213   86.0281   15.3226 C.ar    1  UNL1        0.0811
      9 C          64.6786   85.6301   14.0905 C.3     1  UNL1        0.1545
     10 N          63.9564   84.9977   12.9378 N.ar    1  UNL1       -0.2884
     11 C          64.0472   83.5167   12.7174 C.ar    1  UNL1        0.0787
     12 C          63.3251   82.8843   11.5648 C.ar    1  UNL1        0.0188
     13 C          62.5121   83.7328   10.6325 C.ar    1  UNL1        0.0102
     14 C          62.4213   85.2138   10.8529 C.ar    1  UNL1        0.1274
     15 C          63.1435   85.8462   12.0056 C.ar    1  UNL1        0.2651
     16 O          63.0526   87.3271   12.2260 O.2     1  UNL1       -0.2670
     17 C          61.6084   86.0623    9.9207 C.3     1  UNL1        0.4230
     18 F          60.7954   86.9108    8.9884 F       1  UNL1       -0.1657
     19 F          62.6169   85.8346    8.8340 F       1  UNL1       -0.1657
     20 F          60.5998   86.2899   11.0074 F       1  UNL1       -0.1657
     21 O          64.2916   89.9759   15.1842 O.3     1  UNL1       -0.4691
     22 C          62.1929   90.3407   10.2130 C.3     1  UNL1        0.0521
     23 C          63.3251   91.0281   10.9171 C.ar    1  UNL1        0.0595
     24 C          64.1352   92.0662   10.1986 C.ar    1  UNL1        0.0163
     25 C          65.2674   92.7536   10.9026 C.ar    1  UNL1        0.0217
     26 C          65.5896   92.4029   12.3250 C.ar    1  UNL1        0.0222
     27 C          66.7218   93.0903   13.0290 C.ar    1  UNL1        0.0017
     28 C          67.0439   92.7395   14.4513 C.ar    1  UNL1        0.0032
     29 C          66.2339   91.7014   15.1697 C.ar    1  UNL1        0.0385
     30 C          65.1017   91.0140   14.4658 C.ar    1  UNL1        0.1565
     31 C          64.7795   91.3648   13.0434 C.ar    1  UNL1        0.1147
     32 N          63.6473   90.6774   12.3394 N.ar    1  UNL1       -0.2466
     33 C          66.0774   93.7917   10.1842 C.ar    1  UNL1        0.0986
     34 N          65.7141   95.2381   10.0237 N.ar    1  UNL1       -0.2354
     35 C          66.8051   95.9061    9.2404 C.ar    1  UNL1        0.1353
     36 S          67.8428   94.8724    8.9168 S.2     1  UNL1       -0.0530
     37 C          67.3930   93.5657    9.5000 C.ar    1  UNL1        0.1060
     38 CL         68.1296   92.2618    9.4142 Cl      1  UNL1       -0.0735
@<TRIPOS>BOND
     1    22    23    1
     2    23    24   ar
     3    24    25   ar
     4    25    33    1
     5    33    34   ar
     6    34    35   ar
     7    35    36   ar
     8    36    37   ar
     9    37    38    1
    10    25    26   ar
    11    26    27   ar
    12    27    28   ar
    13    28    29   ar
    14    29    30   ar
    15    30    21    1
    16    21     1    1
    17     1     2    1
    18     2     3   ar
    19     3     4    1
    20     3     5   ar
    21     5     6   ar
    22     6     7   ar
    23     7     8   ar
    24     8     9    1
    25     9    10    1
    26    10    11   ar
    27    11    12   ar
    28    12    13   ar
    29    13    14   ar
    30    14    17    1
    31    17    18    1
    32    17    19    1
    33    17    20    1
    34    14    15   ar
    35    15    16    2
    36    30    31   ar
    37    31    32   ar
    38    32    23   ar
    39    37    33   ar
    40    31    26   ar
    41     8     2   ar
    42    15    10   ar
@<TRIPOS>MOLECULE
*****
 38 42 0 0 0
SMALL
GASTEIGER

@<TRIPOS>ATOM
      1 C          64.1183   87.6099   13.8015 C.3     1  UNL1        0.2330
      2 C          63.5000   86.4115   14.4583 C.ar    1  UNL1        0.0327
      3 C          63.1551   86.4506   15.9177 C.ar    1  UNL1       -0.0196
      4 C          63.4286   87.6881   16.7201 C.3     1  UNL1        0.0309
      5 C          62.5368   85.2522   16.5746 C.ar    1  UNL1        0.0162
      6 C          62.2633   84.0147   15.7721 C.ar    1  UNL1        0.0982
      7 N          62.6082   83.9756   14.3128 N.ar    1  UNL1       -0.2464
      8 C          63.2265   85.1740   13.6560 C.ar    1  UNL1        0.0811
      9 C          63.5714   85.1350   12.1967 C.3     1  UNL1        0.1545
     10 N          62.5973   85.6553   11.1816 N.ar    1  UNL1       -0.2884
     11 C          61.5666   86.6689   11.5820 C.ar    1  UNL1        0.0787
     12 C          60.5925   87.1892   10.5670 C.ar    1  UNL1        0.0188
     13 C          60.6490   86.6960    9.1515 C.ar    1  UNL1        0.0102
     14 C          61.6797   85.6824    8.7510 C.ar    1  UNL1        0.1274
     15 C          62.6539   85.1621    9.7662 C.ar    1  UNL1        0.2651
     16 O          63.6846   84.1485    9.3658 O.2     1  UNL1       -0.2670
     17 C          61.7363   85.1892    7.3356 C.3     1  UNL1        0.4230
     18 F          61.7929   84.6960    5.9202 F       1  UNL1       -0.1657
     19 F          60.2410   85.0733    7.3162 F       1  UNL1       -0.1657
     20 F          63.2317   85.3052    7.3550 F       1  UNL1       -0.1657
     21 O          63.4005   88.9269   13.8159 O.3     1  UNL1       -0.4691
     22 C          67.0809   92.2847   15.9207 C.3     1  UNL1        0.0521
     23 C          66.3752   92.2114   14.5991 C.ar    1  UNL1        0.0595
     24 C          66.6609   93.2330   13.5386 C.ar    1  UNL1        0.0163
     25 C          65.9552   93.1598   12.2170 C.ar    1  UNL1        0.0217
     26 C          64.9636   92.0649   11.9559 C.ar    1  UNL1        0.0222
     27 C          64.2579   91.9917   10.6344 C.ar    1  UNL1        0.0017
     28 C          63.2664   90.8968   10.3733 C.ar    1  UNL1        0.0032
     29 C          62.9806   89.8752   11.4338 C.ar    1  UNL1        0.0385
     30 C          63.6863   89.9485   12.7554 C.ar    1  UNL1        0.1565
     31 C          64.6778   91.0433   13.0164 C.ar    1  UNL1        0.1147
     32 N          65.3836   91.1166   14.3380 N.ar    1  UNL1       -0.2466
     33 C          66.2410   94.1814   11.1565 C.ar    1  UNL1        0.0986
     34 N          65.7158   95.5860   11.1209 N.ar    1  UNL1       -0.2354
     35 C          66.2523   96.2504    9.8878 C.ar    1  UNL1        0.1353
     36 S          67.1092   95.2565    9.1612 S.2     1  UNL1       -0.0530
     37 C          67.1022   93.9778    9.9454 C.ar    1  UNL1        0.1060
     38 CL         67.8288   92.7168    9.5821 Cl      1  UNL1       -0.0735
@<TRIPOS>BOND
     1    22    23    1
     2    23    24   ar
     3    24    25   ar
     4    25    33    1
     5    33    34   ar
     6    34    35   ar
     7    35    36   ar
     8    36    37   ar
     9    37    38    1
    10    25    26   ar
    11    26    27   ar
    12    27    28   ar
    13    28    29   ar
    14    29    30   ar
    15    30    21    1
    16    21     1    1
    17     1     2    1
    18     2     3   ar
    19     3     4    1
    20     3     5   ar
    21     5     6   ar
    22     6     7   ar
    23     7     8   ar
    24     8     9    1
    25     9    10    1
    26    10    11   ar
    27    11    12   ar
    28    12    13   ar
    29    13    14   ar
    30    14    17    1
    31    17    18    1
    32    17    19    1
    33    17    20    1
    34    14    15   ar
    35    15    16    2
    36    30    31   ar
    37    31    32   ar
    38    32    23   ar
    39    37    33   ar
    40    31    26   ar
    41     8     2   ar
    42    15    10   ar
@<TRIPOS>MOLECULE
*****
 38 42 0 0 0
SMALL
GASTEIGER

@<TRIPOS>ATOM
      1 C          61.6106   88.9031   12.8537 C.3     1  UNL1        0.2330
      2 C          61.1166   88.3271   11.5597 C.ar    1  UNL1        0.0327
      3 C          60.0883   89.0650   10.7545 C.ar    1  UNL1       -0.0196
      4 C          59.5541   90.3786   11.2433 C.3     1  UNL1        0.0309
      5 C          59.5942   88.4891    9.4606 C.ar    1  UNL1        0.0162
      6 C          60.1284   87.1753    8.9719 C.ar    1  UNL1        0.0982
      7 N          61.1567   86.4376    9.7771 N.ar    1  UNL1       -0.2464
      8 C          61.6507   87.0135   11.0710 C.ar    1  UNL1        0.0811
      9 C          62.6790   86.2757   11.8762 C.3     1  UNL1        0.1545
     10 N          62.9853   84.8402   11.5670 N.ar    1  UNL1       -0.2884
     11 C          63.5463   84.4648   10.2274 C.ar    1  UNL1        0.0787
     12 C          63.8526   83.0294    9.9182 C.ar    1  UNL1        0.0188
     13 C          63.5979   81.9693   10.9485 C.ar    1  UNL1        0.0102
     14 C          63.0369   82.3447   12.2880 C.ar    1  UNL1        0.1274
     15 C          62.7306   83.7802   12.5973 C.ar    1  UNL1        0.2651
     16 O          62.1696   84.1557   13.9368 O.2     1  UNL1       -0.2670
     17 C          62.7823   81.2847   13.3183 C.3     1  UNL1        0.4230
     18 F          62.5276   80.2247   14.3486 F       1  UNL1       -0.1657
     19 F          61.3143   81.3432   13.0156 F       1  UNL1       -0.1657
     20 F          64.2502   81.2262   13.6210 F       1  UNL1       -0.1657
     21 O          63.0195   89.4066   12.9611 O.3     1  UNL1       -0.4691
     22 C          66.4724   92.4113   15.8419 C.3     1  UNL1        0.0521
     23 C          65.9717   92.4691   14.4291 C.ar    1  UNL1        0.0595
     24 C          66.4551   93.5478   13.5056 C.ar    1  UNL1        0.0163
     25 C          65.9545   93.6056   12.0929 C.ar    1  UNL1        0.0217
     26 C          64.9704   92.5847   11.6035 C.ar    1  UNL1        0.0222
     27 C          64.4697   92.6426   10.1907 C.ar    1  UNL1        0.0017
     28 C          63.4857   91.6218    9.7014 C.ar    1  UNL1        0.0032
     29 C          63.0022   90.5431   10.6248 C.ar    1  UNL1        0.0385
     30 C          63.5029   90.4852   12.0376 C.ar    1  UNL1        0.1565
     31 C          64.4870   91.5061   12.5269 C.ar    1  UNL1        0.1147
     32 N          64.9877   91.4483   13.9398 N.ar    1  UNL1       -0.2466
     33 C          66.4379   94.6843   11.1694 C.ar    1  UNL1        0.0986
     34 N          66.1065   96.1439   11.2687 N.ar    1  UNL1       -0.2354
     35 C          66.8014   96.8544   10.1452 C.ar    1  UNL1        0.1353
     36 S          67.5622   95.8340    9.3515 S.2     1  UNL1       -0.0530
     37 C          67.3376   94.4928    9.9845 C.ar    1  UNL1        0.1060
     38 CL         67.9118   93.1890    9.5151 Cl      1  UNL1       -0.0735
@<TRIPOS>BOND
     1    22    23    1
     2    23    24   ar
     3    24    25   ar
     4    25    33    1
     5    33    34   ar
     6    34    35   ar
     7    35    36   ar
     8    36    37   ar
     9    37    38    1
    10    25    26   ar
    11    26    27   ar
    12    27    28   ar
    13    28    29   ar
    14    29    30   ar
    15    30    21    1
    16    21     1    1
    17     1     2    1
    18     2     3   ar
    19     3     4    1
    20     3     5   ar
    21     5     6   ar
    22     6     7   ar
    23     7     8   ar
    24     8     9    1
    25     9    10    1
    26    10    11   ar
    27    11    12   ar
    28    12    13   ar
    29    13    14   ar
    30    14    17    1
    31    17    18    1
    32    17    19    1
    33    17    20    1
    34    14    15   ar
    35    15    16    2
    36    30    31   ar
    37    31    32   ar
    38    32    23   ar
    39    37    33   ar
    40    31    26   ar
    41     8     2   ar
    42    15    10   ar
@<TRIPOS>MOLECULE
*****
 38 42 0 0 0
SMALL
GASTEIGER

@<TRIPOS>ATOM
      1 C          61.7318   88.8572   11.4065 C.3     1  UNL1        0.2330
      2 C          61.1877   87.9933   10.3076 C.ar    1  UNL1        0.0327
      3 C          60.3892   88.6077    9.1962 C.ar    1  UNL1       -0.0196
      4 C          60.1349   90.0859    9.1838 C.3     1  UNL1        0.0309
      5 C          59.8451   87.7438    8.0973 C.ar    1  UNL1        0.0162
      6 C          60.0995   86.2655    8.1097 C.ar    1  UNL1        0.0982
      7 N          60.8980   85.6512    9.2210 N.ar    1  UNL1       -0.2464
      8 C          61.4421   86.5151   10.3200 C.ar    1  UNL1        0.0811
      9 C          62.2405   85.9008   11.4313 C.3     1  UNL1        0.1545
     10 N          62.8527   84.5430   11.2532 N.ar    1  UNL1       -0.2884
     11 C          63.5617   84.2017    9.9762 C.ar    1  UNL1        0.0787
     12 C          64.1740   82.8440    9.7981 C.ar    1  UNL1        0.0188
     13 C          64.0772   81.8275   10.8970 C.ar    1  UNL1        0.0102
     14 C          63.3682   82.1689   12.1740 C.ar    1  UNL1        0.1274
     15 C          62.7560   83.5267   12.3521 C.ar    1  UNL1        0.2651
     16 O          62.0470   83.8680   13.6291 O.2     1  UNL1       -0.2670
     17 C          63.2715   81.1526   13.2729 C.3     1  UNL1        0.4230
     18 F          63.1747   80.1362   14.3718 F       1  UNL1       -0.1657
     19 F          64.1945   81.9790   14.1185 F       1  UNL1       -0.1657
     20 F          62.3485   80.3261   12.4273 F       1  UNL1       -0.1657
     21 O          61.8379   90.3407   11.2116 O.3     1  UNL1       -0.4691
     22 C          62.8091   89.2081   16.4101 C.3     1  UNL1        0.0521
     23 C          63.5203   90.0264   15.3734 C.ar    1  UNL1        0.0595
     24 C          64.7923   90.7399   15.7240 C.ar    1  UNL1        0.0163
     25 C          65.5035   91.5581   14.6874 C.ar    1  UNL1        0.0217
     26 C          64.9427   91.6629   13.3000 C.ar    1  UNL1        0.0222
     27 C          65.6539   92.4812   12.2634 C.ar    1  UNL1        0.0017
     28 C          65.0931   92.5859   10.8762 C.ar    1  UNL1        0.0032
     29 C          63.8211   91.8724   10.5256 C.ar    1  UNL1        0.0385
     30 C          63.1099   91.0542   11.5622 C.ar    1  UNL1        0.1565
     31 C          63.6707   90.9494   12.9494 C.ar    1  UNL1        0.1147
     32 N          62.9595   90.1311   13.9861 N.ar    1  UNL1       -0.2466
     33 C          66.7755   92.2716   15.0380 C.ar    1  UNL1        0.0986
     34 N          66.9686   93.2162   16.1871 N.ar    1  UNL1       -0.2354
     35 C          68.3902   93.6942   16.1604 C.ar    1  UNL1        0.1353
     36 S          69.0756   93.0450   14.9947 S.2     1  UNL1       -0.0530
     37 C          68.0777   92.1658   14.3011 C.ar    1  UNL1        0.1060
     38 CL         68.3365   91.3280   13.0841 Cl      1  UNL1       -0.0735
@<TRIPOS>BOND
     1    22    23    1
     2    23    24   ar
     3    24    25   ar
     4    25    33    1
     5    33    34   ar
     6    34    35   ar
     7    35    36   ar
     8    36    37   ar
     9    37    38    1
    10    25    26   ar
    11    26    27   ar
    12    27    28   ar
    13    28    29   ar
    14    29    30   ar
    15    30    21    1
    16    21     1    1
    17     1     2    1
    18     2     3   ar
    19     3     4    1
    20     3     5   ar
    21     5     6   ar
    22     6     7   ar
    23     7     8   ar
    24     8     9    1
    25     9    10    1
    26    10    11   ar
    27    11    12   ar
    28    12    13   ar
    29    13    14   ar
    30    14    17    1
    31    17    18    1
    32    17    19    1
    33    17    20    1
    34    14    15   ar
    35    15    16    2
    36    30    31   ar
    37    31    32   ar
    38    32    23   ar
    39    37    33   ar
    40    31    26   ar
    41     8     2   ar
    42    15    10   ar
@<TRIPOS>MOLECULE
*****
 38 42 0 0 0
SMALL
GASTEIGER

@<TRIPOS>ATOM
      1 C          61.4057   86.5150   11.2902 C.3     1  UNL1        0.2330
      2 C          61.6192   85.9907    9.9011 C.ar    1  UNL1        0.0327
      3 C          60.6773   86.3787    8.8000 C.ar    1  UNL1       -0.0196
      4 C          59.5219   87.2909    9.0881 C.3     1  UNL1        0.0309
      5 C          60.8908   85.8545    7.4109 C.ar    1  UNL1        0.0162
      6 C          62.0463   84.9423    7.1229 C.ar    1  UNL1        0.0982
      7 N          62.9881   84.5544    8.2239 N.ar    1  UNL1       -0.2464
      8 C          62.7746   85.0786    9.6130 C.ar    1  UNL1        0.0811
      9 C          63.7165   84.6907   10.7141 C.3     1  UNL1        0.1545
     10 N          63.2050   83.9438   11.9102 N.ar    1  UNL1       -0.2884
     11 C          62.7268   82.5296   11.7633 C.ar    1  UNL1        0.0787
     12 C          62.2154   81.7828   12.9593 C.ar    1  UNL1        0.0188
     13 C          62.1821   82.4500   14.3024 C.ar    1  UNL1        0.0102
     14 C          62.6603   83.8641   14.4493 C.ar    1  UNL1        0.1274
     15 C          63.1718   84.6110   13.2532 C.ar    1  UNL1        0.2651
     16 O          63.6500   86.0251   13.4002 O.2     1  UNL1       -0.2670
     17 C          62.6271   84.5313   15.7923 C.3     1  UNL1        0.4230
     18 F          62.5939   85.1985   17.1353 F       1  UNL1       -0.1657
     19 F          61.1644   84.8131   15.6161 F       1  UNL1       -0.1657
     20 F          64.0898   84.2495   15.9685 F       1  UNL1       -0.1657
     21 O          60.9034   87.9134   11.4951 O.3     1  UNL1       -0.4691
     22 C          63.1675   88.6867   16.3455 C.3     1  UNL1        0.0521
     23 C          63.3020   89.3656   15.0147 C.ar    1  UNL1        0.0595
     24 C          64.2360   90.5287   14.8572 C.ar    1  UNL1        0.0163
     25 C          64.3706   91.2077   13.5265 C.ar    1  UNL1        0.0217
     26 C          63.5710   90.7236   12.3532 C.ar    1  UNL1        0.0222
     27 C          63.7056   91.4026   11.0225 C.ar    1  UNL1        0.0017
     28 C          62.9060   90.9185    9.8493 C.ar    1  UNL1        0.0032
     29 C          61.9720   89.7554   10.0069 C.ar    1  UNL1        0.0385
     30 C          61.8375   89.0765   11.3376 C.ar    1  UNL1        0.1565
     31 C          62.6370   89.5605   12.5108 C.ar    1  UNL1        0.1147
     32 N          62.5025   88.8816   13.8416 N.ar    1  UNL1       -0.2466
     33 C          65.3046   92.3708   13.3689 C.ar    1  UNL1        0.0986
     34 N          65.5387   93.1491   12.1083 N.ar    1  UNL1       -0.2354
     35 C          66.5473   94.2191   12.4046 C.ar    1  UNL1        0.1353
     36 S          66.9367   94.1020   13.8484 S.2     1  UNL1       -0.0530
     37 C          66.1686   92.9597   14.4444 C.ar    1  UNL1        0.1060
     38 CL         66.2503   92.4889   15.8663 Cl      1  UNL1       -0.0735
@<TRIPOS>BOND
     1    22    23    1
     2    23    24   ar
     3    24    25   ar
     4    25    33    1
     5    33    34   ar
     6    34    35   ar
     7    35    36   ar
     8    36    37   ar
     9    37    38    1
    10    25    26   ar
    11    26    27   ar
    12    27    28   ar
    13    28    29   ar
    14    29    30   ar
    15    30    21    1
    16    21     1    1
    17     1     2    1
    18     2     3   ar
    19     3     4    1
    20     3     5   ar
    21     5     6   ar
    22     6     7   ar
    23     7     8   ar
    24     8     9    1
    25     9    10    1
    26    10    11   ar
    27    11    12   ar
    28    12    13   ar
    29    13    14   ar
    30    14    17    1
    31    17    18    1
    32    17    19    1
    33    17    20    1
    34    14    15   ar
    35    15    16    2
    36    30    31   ar
    37    31    32   ar
    38    32    23   ar
    39    37    33   ar
    40    31    26   ar
    41     8     2   ar
    42    15    10   ar
@<TRIPOS>MOLECULE
*****
 38 42 0 0 0
SMALL
GASTEIGER

@<TRIPOS>ATOM
      1 C          60.9814   89.4423   10.3420 C.3     1  UNL1        0.2330
      2 C          60.6556   88.2960    9.4310 C.ar    1  UNL1        0.0327
      3 C          59.8877   88.5387    8.1654 C.ar    1  UNL1       -0.0196
      4 C          59.4457   89.9275    7.8109 C.3     1  UNL1        0.0309
      5 C          59.5619   87.3924    7.2544 C.ar    1  UNL1        0.0162
      6 C          60.0039   86.0035    7.6090 C.ar    1  UNL1        0.0982
      7 N          60.7717   85.7609    8.8745 N.ar    1  UNL1       -0.2464
      8 C          61.0976   86.9072    9.7855 C.ar    1  UNL1        0.0811
      9 C          61.8654   86.6646   11.0510 C.3     1  UNL1        0.1545
     10 N          62.6792   85.4142   11.2065 N.ar    1  UNL1       -0.2884
     11 C          63.1219   84.6517    9.9930 C.ar    1  UNL1        0.0787
     12 C          63.9357   83.4013   10.1485 C.ar    1  UNL1        0.0188
     13 C          64.3068   82.9133   11.5175 C.ar    1  UNL1        0.0102
     14 C          63.8641   83.6758   12.7311 C.ar    1  UNL1        0.1274
     15 C          63.0503   84.9262   12.5755 C.ar    1  UNL1        0.2651
     16 O          62.6075   85.6887   13.7891 O.2     1  UNL1       -0.2670
     17 C          64.2351   83.1878   14.1001 C.3     1  UNL1        0.4230
     18 F          64.6062   82.6999   15.4690 F       1  UNL1       -0.1657
     19 F          65.3010   84.2397   14.1861 F       1  UNL1       -0.1657
     20 F          63.1693   82.1359   14.0140 F       1  UNL1       -0.1657
     21 O          62.3365   90.0831   10.2860 O.3     1  UNL1       -0.4691
     22 C          65.4680   94.4532    9.6979 C.3     1  UNL1        0.0521
     23 C          65.3193   93.4171   10.7724 C.ar    1  UNL1        0.0595
     24 C          66.1650   93.4924   12.0089 C.ar    1  UNL1        0.0163
     25 C          66.0164   92.4564   13.0834 C.ar    1  UNL1        0.0217
     26 C          65.0221   91.3450   12.9213 C.ar    1  UNL1        0.0222
     27 C          64.8735   90.3089   13.9958 C.ar    1  UNL1        0.0017
     28 C          63.8793   89.1976   13.8337 C.ar    1  UNL1        0.0032
     29 C          63.0336   89.1223   12.5971 C.ar    1  UNL1        0.0385
     30 C          63.1822   90.1584   11.5226 C.ar    1  UNL1        0.1565
     31 C          64.1764   91.2697   11.6847 C.ar    1  UNL1        0.1147
     32 N          64.3251   92.3058   10.6102 N.ar    1  UNL1       -0.2466
     33 C          66.8621   92.5317   14.3200 C.ar    1  UNL1        0.0986
     34 N          66.4003   92.9680   15.6788 N.ar    1  UNL1       -0.2354
     35 C          67.5709   92.8899   16.6135 C.ar    1  UNL1        0.1353
     36 S          68.7562   92.4052   15.8324 S.2     1  UNL1       -0.0530
     37 C          68.3181   92.1839   14.4149 C.ar    1  UNL1        0.1060
     38 CL         69.1841   91.6997   13.2899 Cl      1  UNL1       -0.0735
@<TRIPOS>BOND
     1    22    23    1
     2    23    24   ar
     3    24    25   ar
     4    25    33    1
     5    33    34   ar
     6    34    35   ar
     7    35    36   ar
     8    36    37   ar
     9    37    38    1
    10    25    26   ar
    11    26    27   ar
    12    27    28   ar
    13    28    29   ar
    14    29    30   ar
    15    30    21    1
    16    21     1    1
    17     1     2    1
    18     2     3   ar
    19     3     4    1
    20     3     5   ar
    21     5     6   ar
    22     6     7   ar
    23     7     8   ar
    24     8     9    1
    25     9    10    1
    26    10    11   ar
    27    11    12   ar
    28    12    13   ar
    29    13    14   ar
    30    14    17    1
    31    17    18    1
    32    17    19    1
    33    17    20    1
    34    14    15   ar
    35    15    16    2
    36    30    31   ar
    37    31    32   ar
    38    32    23   ar
    39    37    33   ar
    40    31    26   ar
    41     8     2   ar
    42    15    10   ar
@<TRIPOS>MOLECULE
*****
 38 42 0 0 0
SMALL
GASTEIGER

@<TRIPOS>ATOM
      1 C          62.1119   88.4051   11.0431 C.3     1  UNL1        0.2330
      2 C          61.4058   87.6517    9.9550 C.ar    1  UNL1        0.0327
      3 C          60.2073   88.2530    9.2825 C.ar    1  UNL1       -0.0196
      4 C          59.7150   89.6075    9.6980 C.3     1  UNL1        0.0309
      5 C          59.5013   87.4996    8.1944 C.ar    1  UNL1        0.0162
      6 C          59.9937   86.1449    7.7789 C.ar    1  UNL1        0.0982
      7 N          61.1921   85.5437    8.4515 N.ar    1  UNL1       -0.2464
      8 C          61.8981   86.2971    9.5395 C.ar    1  UNL1        0.0811
      9 C          63.0965   85.6960   10.2121 C.3     1  UNL1        0.1545
     10 N          62.9145   84.7009   11.3198 N.ar    1  UNL1       -0.2884
     11 C          62.6194   83.2659   10.9978 C.ar    1  UNL1        0.0787
     12 C          62.4374   82.2709   12.1054 C.ar    1  UNL1        0.0188
     13 C          62.5505   82.7109   13.5350 C.ar    1  UNL1        0.0102
     14 C          62.8456   84.1459   13.8569 C.ar    1  UNL1        0.1274
     15 C          63.0276   85.1409   12.7493 C.ar    1  UNL1        0.2651
     16 O          63.3227   86.5759   13.0712 O.2     1  UNL1       -0.2670
     17 C          62.9587   84.5859   15.2865 C.3     1  UNL1        0.4230
     18 F          63.0718   85.0259   16.7160 F       1  UNL1       -0.1657
     19 F          61.4633   84.5893   15.4037 F       1  UNL1       -0.1657
     20 F          64.4541   84.5824   15.1692 F       1  UNL1       -0.1657
     21 O          62.0145   89.9006   11.1047 O.3     1  UNL1       -0.4691
     22 C          62.9517   88.8482   16.3262 C.3     1  UNL1        0.0521
     23 C          63.6180   89.7224   15.3055 C.ar    1  UNL1        0.0595
     24 C          64.8189   90.5372   15.6851 C.ar    1  UNL1        0.0163
     25 C          65.4853   91.4114   14.6644 C.ar    1  UNL1        0.0217
     26 C          64.9508   91.4708   13.2641 C.ar    1  UNL1        0.0222
     27 C          65.6171   92.3449   12.2434 C.ar    1  UNL1        0.0017
     28 C          65.0826   92.4043   10.8432 C.ar    1  UNL1        0.0032
     29 C          63.8817   91.5896   10.4636 C.ar    1  UNL1        0.0385
     30 C          63.2154   90.7154   11.4843 C.ar    1  UNL1        0.1565
     31 C          63.7499   90.6560   12.8845 C.ar    1  UNL1        0.1147
     32 N          63.0835   89.7818   13.9052 N.ar    1  UNL1       -0.2466
     33 C          66.6861   92.2261   15.0440 C.ar    1  UNL1        0.0986
     34 N          66.7697   93.1934   16.1874 N.ar    1  UNL1       -0.2354
     35 C          68.1495   93.7818   16.1969 C.ar    1  UNL1        0.1353
     36 S          68.9186   93.1781   15.0594 S.2     1  UNL1       -0.0530
     37 C          68.0142   92.2167   14.3469 C.ar    1  UNL1        0.1060
     38 CL         68.3747   91.3908   13.1477 Cl      1  UNL1       -0.0735
@<TRIPOS>BOND
     1    22    23    1
     2    23    24   ar
     3    24    25   ar
     4    25    33    1
     5    33    34   ar
     6    34    35   ar
     7    35    36   ar
     8    36    37   ar
     9    37    38    1
    10    25    26   ar
    11    26    27   ar
    12    27    28   ar
    13    28    29   ar
    14    29    30   ar
    15    30    21    1
    16    21     1    1
    17     1     2    1
    18     2     3   ar
    19     3     4    1
    20     3     5   ar
    21     5     6   ar
    22     6     7   ar
    23     7     8   ar
    24     8     9    1
    25     9    10    1
    26    10    11   ar
    27    11    12   ar
    28    12    13   ar
    29    13    14   ar
    30    14    17    1
    31    17    18    1
    32    17    19    1
    33    17    20    1
    34    14    15   ar
    35    15    16    2
    36    30    31   ar
    37    31    32   ar
    38    32    23   ar
    39    37    33   ar
    40    31    26   ar
    41     8     2   ar
    42    15    10   ar
