@<TRIPOS>MOLECULE
*****
 34 38 0 0 0
SMALL
GASTEIGER

@<TRIPOS>ATOM
      1 C          63.5043   88.6284   13.0749 C.ar    1  UNL1        0.1261
      2 N          62.7842   88.6733   11.7599 N.ar    1  UNL1       -0.1632
      3 N          62.5109   87.2616   11.3327 N.ar    1  UNL1       -0.2290
      4 C          63.0622   86.3443   12.3837 C.ar    1  UNL1        0.0822
      5 C          63.6762   87.1889   13.4605 C.ar    1  UNL1        0.0413
      6 C          61.8094   86.8411   10.0752 C.ar    1  UNL1        0.0933
      7 C          62.5302   86.0084    9.0569 C.ar    1  UNL1        0.0200
      8 C          61.8288   85.5879    7.7995 C.ar    1  UNL1        0.0016
      9 C          60.4065   86.0001    7.5604 C.ar    1  UNL1        0.0010
     10 C          59.6857   86.8328    8.5787 C.ar    1  UNL1        0.0129
     11 C          60.3871   87.2533    9.8361 C.ar    1  UNL1        0.0753
     12 CL         59.6663   88.0861   10.8545 Cl      1  UNL1       -0.0807
     13 C          63.0088   84.8454   12.3617 C.ar    1  UNL1        0.0175
     14 C          62.3527   84.1017   13.4870 C.ar    1  UNL1        0.0020
     15 C          62.2993   82.6028   13.4651 C.ar    1  UNL1        0.0067
     16 C          62.9022   81.8476   12.3178 C.ar    1  UNL1        0.0346
     17 BR         62.8489   80.3487   12.2959 Br      1  UNL1       -0.0490
     18 C          63.5584   82.5913   11.1924 C.ar    1  UNL1        0.0067
     19 C          63.6117   84.0902   11.2145 C.ar    1  UNL1        0.0020
     20 C          65.3470   91.6204   14.7236 C.ar    1  UNL1        0.1104
     21 N          64.0304   91.6598   15.4412 N.ar    1  UNL1       -0.1453
     22 N          63.1799   90.5438   14.9110 N.ar    1  UNL1       -0.1396
     23 C          63.9708   89.8146   13.8657 C.ar    1  UNL1        0.1525
     24 S          65.3101   90.4800   13.7499 S.2     1  UNL1       -0.0483
     25 C          66.1638   92.6280   16.4021 C.3     1  UNL1        0.0065
     26 C          66.4982   92.5569   14.9415 C.3     1  UNL1        0.0430
     27 C          66.8325   92.4859   13.4810 C.3     1  UNL1        0.0065
     28 C          67.6494   93.4934   15.1596 C.3     1  UNL1        0.0065
     29 C          64.3447   86.6831   14.7043 C.3     1  UNL1        0.1587
     30 N          63.5876   86.6412   15.9986 N.ar    1  UNL1       -0.2254
     31 C          62.9973   85.4180   16.6355 C.ar    1  UNL1        0.1975
     32 N          62.3327   85.8359   17.9137 N.ar    1  UNL1       -0.2007
     33 C          62.5124   87.3173   18.0667 C.ar    1  UNL1        0.2210
     34 N          63.2879   87.8149   16.8831 N.ar    1  UNL1       -0.1448
@<TRIPOS>BOND
     1    25    26    1
     2    26    27    1
     3    26    28    1
     4    26    20    1
     5    20    21   ar
     6    21    22   ar
     7    22    23   ar
     8    23     1    1
     9     1     2   ar
    10     2     3   ar
    11     3     6    1
    12     6     7   ar
    13     7     8   ar
    14     8     9   ar
    15     9    10   ar
    16    10    11   ar
    17    11    12    1
    18     3     4   ar
    19     4    13    1
    20    13    14   ar
    21    14    15   ar
    22    15    16   ar
    23    16    17    1
    24    16    18   ar
    25    18    19   ar
    26     4     5   ar
    27     5    29    1
    28    29    30    1
    29    30    31   ar
    30    31    32   ar
    31    32    33   ar
    32    33    34   ar
    33    23    24   ar
    34    24    20   ar
    35     5     1   ar
    36    34    30   ar
    37    11     6   ar
    38    19    13   ar
@<TRIPOS>MOLECULE
*****
 34 38 0 0 0
SMALL
GASTEIGER

@<TRIPOS>ATOM
      1 C          64.7770   91.9586   12.2376 C.ar    1  UNL1        0.1261
      2 N          63.9281   91.1024   11.3452 N.ar    1  UNL1       -0.1632
      3 N          63.4190   89.9486   12.1574 N.ar    1  UNL1       -0.2290
      4 C          63.9532   90.0917   13.5517 C.ar    1  UNL1        0.0822
      5 C          64.7925   91.3339   13.6013 C.ar    1  UNL1        0.0413
      6 C          62.5314   88.8454   11.6621 C.ar    1  UNL1        0.0933
      7 C          63.0363   87.4333   11.6312 C.ar    1  UNL1        0.0200
      8 C          62.1487   86.3302   11.1360 C.ar    1  UNL1        0.0016
      9 C          60.7562   86.6391   10.6718 C.ar    1  UNL1        0.0010
     10 C          60.2513   88.0512   10.7027 C.ar    1  UNL1        0.0129
     11 C          61.1389   89.1544   11.1979 C.ar    1  UNL1        0.0753
     12 CL         60.6340   90.5665   11.2289 Cl      1  UNL1       -0.0807
     13 C          63.6938   89.1567   14.6956 C.ar    1  UNL1        0.0175
     14 C          62.9872   89.6510   15.9229 C.ar    1  UNL1        0.0020
     15 C          62.7277   88.7161   17.0667 C.ar    1  UNL1        0.0067
     16 C          63.1749   87.2867   16.9833 C.ar    1  UNL1        0.0346
     17 BR         62.9154   86.3517   18.1272 Br      1  UNL1       -0.0490
     18 C          63.8815   86.7923   15.7560 C.ar    1  UNL1        0.0067
     19 C          64.1409   87.7274   14.6121 C.ar    1  UNL1        0.0020
     20 C          66.5531   94.9414   10.5017 C.ar    1  UNL1        0.1104
     21 N          66.6004   95.3719   11.9378 N.ar    1  UNL1       -0.1453
     22 N          65.9409   94.3069   12.7629 N.ar    1  UNL1       -0.1396
     23 C          65.4859   93.2182   11.8367 C.ar    1  UNL1        0.1525
     24 S          65.8643   93.6104   10.4392 S.2     1  UNL1       -0.0483
     25 C          66.1917   96.8560    9.6627 C.3     1  UNL1        0.0065
     26 C          67.0988   95.7075    9.3333 C.3     1  UNL1        0.0430
     27 C          68.0058   94.5592    9.0039 C.3     1  UNL1        0.0065
     28 C          67.6444   96.4737    8.1649 C.3     1  UNL1        0.0065
     29 C          65.5197   91.8592   14.8035 C.3     1  UNL1        0.1587
     30 N          66.9849   92.1691   14.7176 N.ar    1  UNL1       -0.2254
     31 C          67.9288   91.6808   13.6589 C.ar    1  UNL1        0.1975
     32 N          69.2906   92.2315   13.9624 N.ar    1  UNL1       -0.2007
     33 C          69.1883   93.0602   15.2085 C.ar    1  UNL1        0.2210
     34 N          67.7634   93.0216   15.6753 N.ar    1  UNL1       -0.1448
@<TRIPOS>BOND
     1    25    26    1
     2    26    27    1
     3    26    28    1
     4    26    20    1
     5    20    21   ar
     6    21    22   ar
     7    22    23   ar
     8    23     1    1
     9     1     2   ar
    10     2     3   ar
    11     3     6    1
    12     6     7   ar
    13     7     8   ar
    14     8     9   ar
    15     9    10   ar
    16    10    11   ar
    17    11    12    1
    18     3     4   ar
    19     4    13    1
    20    13    14   ar
    21    14    15   ar
    22    15    16   ar
    23    16    17    1
    24    16    18   ar
    25    18    19   ar
    26     4     5   ar
    27     5    29    1
    28    29    30    1
    29    30    31   ar
    30    31    32   ar
    31    32    33   ar
    32    33    34   ar
    33    23    24   ar
    34    24    20   ar
    35     5     1   ar
    36    34    30   ar
    37    11     6   ar
    38    19    13   ar
@<TRIPOS>MOLECULE
*****
 34 38 0 0 0
SMALL
GASTEIGER

@<TRIPOS>ATOM
      1 C          63.5499   89.1339   12.3605 C.ar    1  UNL1        0.1261
      2 N          62.6698   89.0526   11.1485 N.ar    1  UNL1       -0.1632
      3 N          62.2587   87.6213   10.9693 N.ar    1  UNL1       -0.2290
      4 C          62.8847   86.8178   12.0705 C.ar    1  UNL1        0.0822
      5 C          63.6827   87.7526   12.9303 C.ar    1  UNL1        0.0413
      6 C          61.3764   87.0871    9.8801 C.ar    1  UNL1        0.0933
      7 C          59.9035   87.3704    9.9013 C.ar    1  UNL1        0.0200
      8 C          59.0213   86.8362    8.8121 C.ar    1  UNL1        0.0016
      9 C          59.6120   86.0187    7.7018 C.ar    1  UNL1        0.0010
     10 C          61.0848   85.7354    7.6806 C.ar    1  UNL1        0.0129
     11 C          61.9670   86.2696    8.7697 C.ar    1  UNL1        0.0753
     12 CL         63.4399   85.9863    8.7486 Cl      1  UNL1       -0.0807
     13 C          62.7384   85.3392   12.2758 C.ar    1  UNL1        0.0175
     14 C          63.1014   84.3893   11.1731 C.ar    1  UNL1        0.0020
     15 C          62.9551   82.9106   11.3785 C.ar    1  UNL1        0.0067
     16 C          62.4458   82.3818   12.6865 C.ar    1  UNL1        0.0346
     17 BR         62.2995   80.9032   12.8918 Br      1  UNL1       -0.0490
     18 C          62.0827   83.3317   13.7893 C.ar    1  UNL1        0.0067
     19 C          62.2291   84.8104   13.5838 C.ar    1  UNL1        0.0020
     20 C          65.2950   92.5318   13.0488 C.ar    1  UNL1        0.1104
     21 N          65.0326   92.0525   14.4458 N.ar    1  UNL1       -0.1453
     22 N          64.3469   90.7213   14.3579 N.ar    1  UNL1       -0.1396
     23 C          64.1856   90.3779   12.9067 C.ar    1  UNL1        0.1525
     24 S          64.7715   91.4968   12.0977 S.2     1  UNL1       -0.0483
     25 C          66.4603   93.9760   14.0765 C.3     1  UNL1        0.0065
     26 C          65.9635   93.8199   12.6698 C.3     1  UNL1        0.0430
     27 C          65.4667   93.6638   11.2630 C.3     1  UNL1        0.0065
     28 C          66.6321   95.1080   12.2907 C.3     1  UNL1        0.0065
     29 C          64.4746   87.3729   14.1463 C.3     1  UNL1        0.1587
     30 N          63.7960   87.2654   15.4797 N.ar    1  UNL1       -0.2254
     31 C          63.3535   88.4127   16.3389 C.ar    1  UNL1        0.1975
     32 N          62.7248   87.8481   17.5782 N.ar    1  UNL1       -0.2007
     33 C          62.7787   86.3519   17.4850 C.ar    1  UNL1        0.2210
     34 N          63.4408   85.9918   16.1881 N.ar    1  UNL1       -0.1448
@<TRIPOS>BOND
     1    25    26    1
     2    26    27    1
     3    26    28    1
     4    26    20    1
     5    20    21   ar
     6    21    22   ar
     7    22    23   ar
     8    23     1    1
     9     1     2   ar
    10     2     3   ar
    11     3     6    1
    12     6     7   ar
    13     7     8   ar
    14     8     9   ar
    15     9    10   ar
    16    10    11   ar
    17    11    12    1
    18     3     4   ar
    19     4    13    1
    20    13    14   ar
    21    14    15   ar
    22    15    16   ar
    23    16    17    1
    24    16    18   ar
    25    18    19   ar
    26     4     5   ar
    27     5    29    1
    28    29    30    1
    29    30    31   ar
    30    31    32   ar
    31    32    33   ar
    32    33    34   ar
    33    23    24   ar
    34    24    20   ar
    35     5     1   ar
    36    34    30   ar
    37    11     6   ar
    38    19    13   ar
