@<TRIPOS>MOLECULE
*****
 31 34 0 0 0
SMALL
GASTEIGER

@<TRIPOS>ATOM
      1 C          61.3357   89.3422   10.2858 C.3     1  UNL1        0.0050
      2 C          61.9050   90.5984    9.6959 C.3     1  UNL1        0.0050
      3 C          63.0023   91.3315   10.4089 C.3     1  UNL1        0.0260
      4 C          63.5303   90.8084   11.7118 C.ar    1  UNL1       -0.0264
      5 C          64.6277   91.5416   12.4248 C.ar    1  UNL1       -0.0089
      6 C          65.1557   91.0186   13.7278 C.ar    1  UNL1       -0.0228
      7 C          64.5864   89.7624   14.3177 C.ar    1  UNL1       -0.0046
      8 C          63.4891   89.0293   13.6047 C.ar    1  UNL1       -0.0049
      9 C          62.9610   89.5523   12.3017 C.ar    1  UNL1       -0.0262
     10 C          61.8637   88.8192   11.5887 C.3     1  UNL1        0.0260
     11 C          66.2530   91.7517   14.4408 C.3     1  UNL1        0.0237
     12 C          66.1052   92.5505   15.7018 C.3     1  UNL1        0.0058
     13 C          67.4517   93.1072   16.0583 C.3     1  UNL1        0.0170
     14 C          68.4316   92.6524   15.0177 C.3     1  UNL1        0.0666
     15 N          69.6183   92.3601   14.1480 N.3     1  UNL1       -0.3212
     16 C          67.6908   91.8147   14.0180 C.3     1  UNL1        0.0210
     17 H          70.4448   92.8142   14.5368 H       1  UNL1        0.1188
     18 H          69.4462   92.7150   13.2074 H       1  UNL1        0.1188
     19 C          69.4206   93.4291   15.8356 C.3     1  UNL1        0.1511
     20 O          69.0261   94.7445   16.4390 O.3     1  UNL1       -0.3806
     21 H          68.8596   95.3875   15.7322 H       1  UNL1        0.2105
     22 C          60.2383   88.6091    9.5728 C.3     1  UNL1        0.0051
     23 C          60.1380   87.1166    9.6839 C.3     1  UNL1        0.0294
     24 C          62.2954   85.7065    9.3564 C.ar    1  UNL1        0.1347
     25 C          63.1567   84.8307    8.4955 C.ar    1  UNL1        0.0366
     26 C          62.7218   84.4892    7.1011 C.ar    1  UNL1        0.0031
     27 C          61.4257   85.0235    6.5677 C.ar    1  UNL1       -0.0001
     28 C          60.5644   85.8993    7.4286 C.ar    1  UNL1       -0.0013
     29 C          60.9993   86.2408    8.8229 C.ar    1  UNL1        0.0118
     30 C          62.4289   85.1094   11.8814 C.3     1  UNL1        0.2525
     31 O          62.7303   86.0480   10.7508 O.3     1  UNL1       -0.4717
@<TRIPOS>BOND
     1    30    31    1
     2    31    24    1
     3    24    25   ar
     4    25    26   ar
     5    26    27   ar
     6    27    28   ar
     7    28    29   ar
     8    29    23    1
     9    23    22    1
    10     1    22    1
    11     1     2    1
    12     2     3    1
    13     3     4    1
    14     4     5   ar
    15     5     6   ar
    16    11     6    1
    17    11    12    1
    18    12    13    1
    19    13    14    1
    20    14    15    1
    21    14    19    1
    22    19    20    1
    23    14    16    1
    24     6     7   ar
    25     7     8   ar
    26     8     9   ar
    27     9    10    1
    28    29    24   ar
    29    10     1    1
    30     9     4   ar
    31    16    11    1
    32    15    17    1
    33    15    18    1
    34    20    21    1
@<TRIPOS>MOLECULE
*****
 31 34 0 0 0
SMALL
GASTEIGER

@<TRIPOS>ATOM
      1 C          61.4959   88.8958   10.2868 C.3     1  UNL1        0.0050
      2 C          61.9554   90.2046    9.7161 C.3     1  UNL1        0.0050
      3 C          62.9902   91.0157   10.4382 C.3     1  UNL1        0.0260
      4 C          63.5654   90.5179   11.7310 C.ar    1  UNL1       -0.0264
      5 C          64.6002   91.3290   12.4531 C.ar    1  UNL1       -0.0089
      6 C          65.1754   90.8313   13.7459 C.ar    1  UNL1       -0.0228
      7 C          64.7158   89.5224   14.3166 C.ar    1  UNL1       -0.0046
      8 C          63.6811   88.7113   13.5945 C.ar    1  UNL1       -0.0049
      9 C          63.1058   89.2091   12.3017 C.ar    1  UNL1       -0.0262
     10 C          62.0711   88.3981   11.5796 C.3     1  UNL1        0.0260
     11 C          66.2101   91.6423   14.4680 C.3     1  UNL1        0.0237
     12 C          65.9869   92.4504   15.7119 C.3     1  UNL1        0.0058
     13 C          67.2886   93.0952   16.0857 C.3     1  UNL1        0.0170
     14 C          68.3164   92.6856   15.0727 C.3     1  UNL1        0.0666
     15 N          69.5369   92.4537   14.2321 N.3     1  UNL1       -0.3212
     16 C          67.6498   91.7877   14.0730 C.3     1  UNL1        0.0210
     17 H          70.3254   92.9643   14.6294 H       1  UNL1        0.1188
     18 H          69.3629   92.7822   13.2823 H       1  UNL1        0.1188
     19 C          69.2381   93.5351   15.8968 C.3     1  UNL1        0.1511
     20 O          68.7948   94.8910   16.3602 O.3     1  UNL1       -0.3806
     21 H          68.6798   95.4734   15.5931 H       1  UNL1        0.2105
     22 C          60.4611   88.0847    9.5647 C.3     1  UNL1        0.0051
     23 C          60.8593   86.8305    8.8449 C.3     1  UNL1        0.0294
     24 C          62.7329   85.0339    8.7334 C.ar    1  UNL1        0.1347
     25 C          63.6044   84.0219    9.4160 C.ar    1  UNL1        0.0366
     26 C          63.4742   83.7943   10.8929 C.ar    1  UNL1        0.0031
     27 C          62.4723   84.5788   11.6871 C.ar    1  UNL1       -0.0001
     28 C          61.6007   85.5908   11.0045 C.ar    1  UNL1       -0.0013
     29 C          61.7310   85.8184    9.5276 C.ar    1  UNL1        0.0118
     30 C          61.9942   84.4990    6.3006 C.3     1  UNL1        0.2525
     31 O          62.8631   85.2615    7.2564 O.3     1  UNL1       -0.4717
@<TRIPOS>BOND
     1    30    31    1
     2    31    24    1
     3    24    25   ar
     4    25    26   ar
     5    26    27   ar
     6    27    28   ar
     7    28    29   ar
     8    29    23    1
     9    23    22    1
    10     1    22    1
    11     1     2    1
    12     2     3    1
    13     3     4    1
    14     4     5   ar
    15     5     6   ar
    16    11     6    1
    17    11    12    1
    18    12    13    1
    19    13    14    1
    20    14    15    1
    21    14    19    1
    22    19    20    1
    23    14    16    1
    24     6     7   ar
    25     7     8   ar
    26     8     9   ar
    27     9    10    1
    28    29    24   ar
    29    10     1    1
    30     9     4   ar
    31    16    11    1
    32    15    17    1
    33    15    18    1
    34    20    21    1
@<TRIPOS>MOLECULE
*****
 31 34 0 0 0
SMALL
GASTEIGER

@<TRIPOS>ATOM
      1 C          63.8990   90.0891   13.3506 C.3     1  UNL1        0.0050
      2 C          64.4984   89.3288   14.4963 C.3     1  UNL1        0.0050
      3 C          64.3975   87.8328   14.5383 C.3     1  UNL1        0.0260
      4 C          63.6972   87.0971   13.4345 C.ar    1  UNL1       -0.0264
      5 C          63.5963   85.6010   13.4766 C.ar    1  UNL1       -0.0089
      6 C          62.8959   84.8653   12.3728 C.ar    1  UNL1       -0.0228
      7 C          62.2965   85.6256   11.2271 C.ar    1  UNL1       -0.0046
      8 C          62.3974   87.1216   11.1851 C.ar    1  UNL1       -0.0049
      9 C          63.0977   87.8573   12.2889 C.ar    1  UNL1       -0.0262
     10 C          63.1986   89.3533   12.2469 C.3     1  UNL1        0.0260
     11 C          62.7950   83.3693   12.4148 C.3     1  UNL1        0.0237
     12 C          63.0443   82.4362   11.2671 C.3     1  UNL1        0.0058
     13 C          62.8305   81.0340   11.7548 C.3     1  UNL1        0.0170
     14 C          62.4490   81.1004   13.2040 C.3     1  UNL1        0.0666
     15 N          62.0550   80.8543   14.6303 N.3     1  UNL1       -0.3212
     16 C          62.4271   82.5437   13.6119 C.3     1  UNL1        0.0210
     17 H          61.9532   79.8515   14.7867 H       1  UNL1        0.1188
     18 H          61.1684   81.3202   14.8233 H       1  UNL1        0.1188
     19 C          62.3885   79.6056   13.0943 C.3     1  UNL1        0.1511
     20 O          62.6038   78.9416   11.7666 O.3     1  UNL1       -0.3806
     21 H          61.8799   79.1779   11.1658 H       1  UNL1        0.2105
     22 C          63.9998   91.5851   13.3086 C.3     1  UNL1        0.0051
     23 C          65.2805   92.2388   12.8814 C.3     1  UNL1        0.0294
     24 C          67.8281   92.1394   13.3819 C.ar    1  UNL1        0.1347
     25 C          68.9674   92.2606   14.3499 C.ar    1  UNL1        0.0366
     26 C          68.6988   92.6025   15.7855 C.ar    1  UNL1        0.0031
     27 C          67.2907   92.8231   16.2530 C.ar    1  UNL1       -0.0001
     28 C          66.1513   92.7019   15.2851 C.ar    1  UNL1       -0.0013
     29 C          66.4200   92.3600   13.8495 C.ar    1  UNL1        0.0118
     30 C          67.6210   92.7113   10.8560 C.3     1  UNL1        0.2525
     31 O          68.0967   91.7975   11.9463 O.3     1  UNL1       -0.4717
@<TRIPOS>BOND
     1    30    31    1
     2    31    24    1
     3    24    25   ar
     4    25    26   ar
     5    26    27   ar
     6    27    28   ar
     7    28    29   ar
     8    29    23    1
     9    23    22    1
    10     1    22    1
    11     1     2    1
    12     2     3    1
    13     3     4    1
    14     4     5   ar
    15     5     6   ar
    16    11     6    1
    17    11    12    1
    18    12    13    1
    19    13    14    1
    20    14    15    1
    21    14    19    1
    22    19    20    1
    23    14    16    1
    24     6     7   ar
    25     7     8   ar
    26     8     9   ar
    27     9    10    1
    28    29    24   ar
    29    10     1    1
    30     9     4   ar
    31    16    11    1
    32    15    17    1
    33    15    18    1
    34    20    21    1
@<TRIPOS>MOLECULE
*****
 31 34 0 0 0
SMALL
GASTEIGER

@<TRIPOS>ATOM
      1 C          63.8069   90.9499   12.1243 C.3     1  UNL1        0.0050
      2 C          63.0211   90.4208   10.9613 C.3     1  UNL1        0.0050
      3 C          62.6776   88.9624   10.8898 C.3     1  UNL1        0.0260
      4 C          63.1199   88.0332   11.9811 C.ar    1  UNL1       -0.0264
      5 C          62.7764   86.5748   11.9095 C.ar    1  UNL1       -0.0089
      6 C          63.2187   85.6457   13.0008 C.ar    1  UNL1       -0.0228
      7 C          64.0045   86.1749   14.1638 C.ar    1  UNL1       -0.0046
      8 C          64.3480   87.6333   14.2354 C.ar    1  UNL1       -0.0049
      9 C          63.9057   88.5624   13.1440 C.ar    1  UNL1       -0.0262
     10 C          64.2492   90.0208   13.2156 C.3     1  UNL1        0.0260
     11 C          62.8752   84.1873   12.9293 C.3     1  UNL1        0.0237
     12 C          62.7138   83.3800   11.6754 C.3     1  UNL1        0.0058
     13 C          62.3716   81.9739   12.0701 C.3     1  UNL1        0.0170
     14 C          62.3216   81.9122   13.5681 C.3     1  UNL1        0.0666
     15 N          62.2013   81.5486   15.0184 N.3     1  UNL1       -0.3212
     16 C          62.6328   83.2802   14.0990 C.3     1  UNL1        0.0210
     17 H          61.9652   80.5599   15.1025 H       1  UNL1        0.1188
     18 H          61.4681   82.1112   15.4502 H       1  UNL1        0.1188
     19 C          61.9852   80.4682   13.3404 C.3     1  UNL1        0.1511
     20 O          62.6599   79.7056   12.2389 O.3     1  UNL1       -0.3806
     21 H          62.3925   80.0717   11.3814 H       1  UNL1        0.2105
     22 C          64.1505   92.4084   12.1959 C.3     1  UNL1        0.0051
     23 C          65.5661   92.8338   12.4506 C.3     1  UNL1        0.0294
     24 C          66.4602   94.4055   10.5850 C.ar    1  UNL1        0.1347
     25 C          67.3864   94.6579    9.4324 C.ar    1  UNL1        0.0366
     26 C          68.3447   93.5911    8.9929 C.ar    1  UNL1        0.0031
     27 C          68.3769   92.2718    9.7059 C.ar    1  UNL1       -0.0001
     28 C          67.4507   92.0193   10.8585 C.ar    1  UNL1       -0.0013
     29 C          66.4924   93.0862   11.2980 C.ar    1  UNL1        0.0118
     30 C          66.0145   96.8275   11.4129 C.3     1  UNL1        0.2525
     31 O          65.5017   95.4724   11.0246 O.3     1  UNL1       -0.4717
@<TRIPOS>BOND
     1    30    31    1
     2    31    24    1
     3    24    25   ar
     4    25    26   ar
     5    26    27   ar
     6    27    28   ar
     7    28    29   ar
     8    29    23    1
     9    23    22    1
    10     1    22    1
    11     1     2    1
    12     2     3    1
    13     3     4    1
    14     4     5   ar
    15     5     6   ar
    16    11     6    1
    17    11    12    1
    18    12    13    1
    19    13    14    1
    20    14    15    1
    21    14    19    1
    22    19    20    1
    23    14    16    1
    24     6     7   ar
    25     7     8   ar
    26     8     9   ar
    27     9    10    1
    28    29    24   ar
    29    10     1    1
    30     9     4   ar
    31    16    11    1
    32    15    17    1
    33    15    18    1
    34    20    21    1
@<TRIPOS>MOLECULE
*****
 31 34 0 0 0
SMALL
GASTEIGER

@<TRIPOS>ATOM
      1 C          63.9639   90.2338   13.4201 C.3     1  UNL1        0.0050
      2 C          64.5732   89.4668   14.5560 C.3     1  UNL1        0.0050
      3 C          64.4651   87.9712   14.5944 C.3     1  UNL1        0.0260
      4 C          63.7476   87.2427   13.4969 C.ar    1  UNL1       -0.0264
      5 C          63.6394   85.7471   13.5354 C.ar    1  UNL1       -0.0089
      6 C          62.9219   85.0185   12.4379 C.ar    1  UNL1       -0.0228
      7 C          62.3126   85.7857   11.3020 C.ar    1  UNL1       -0.0046
      8 C          62.4207   87.2812   11.2635 C.ar    1  UNL1       -0.0049
      9 C          63.1382   88.0098   12.3610 C.ar    1  UNL1       -0.0262
     10 C          63.2464   89.5053   12.3226 C.3     1  UNL1        0.0260
     11 C          62.8137   83.5230   12.4763 C.3     1  UNL1        0.0237
     12 C          63.1513   82.5854   11.3551 C.3     1  UNL1        0.0058
     13 C          62.8952   81.1854   11.8285 C.3     1  UNL1        0.0170
     14 C          62.3993   81.2576   13.2424 C.3     1  UNL1        0.0666
     15 N          61.8917   81.0173   14.6333 N.3     1  UNL1       -0.3212
     16 C          62.3489   82.7023   13.6427 C.3     1  UNL1        0.0210
     17 H          61.7750   80.0153   14.7842 H       1  UNL1        0.1188
     18 H          60.9939   81.4861   14.7533 H       1  UNL1        0.1188
     19 C          62.3435   79.7626   13.1329 C.3     1  UNL1        0.1511
     20 O          62.5391   79.1003   11.8013 O.3     1  UNL1       -0.3806
     21 H          61.8040   79.3337   11.2130 H       1  UNL1        0.2105
     22 C          64.0721   91.7295   13.3816 C.3     1  UNL1        0.0051
     23 C          65.4204   92.3853   13.4257 C.3     1  UNL1        0.0294
     24 C          67.6532   92.1910   12.1116 C.ar    1  UNL1        0.1347
     25 C          68.4368   92.3804   10.8467 C.ar    1  UNL1        0.0366
     26 C          67.7712   92.9536    9.6308 C.ar    1  UNL1        0.0031
     27 C          66.3219   93.3375    9.6799 C.ar    1  UNL1       -0.0001
     28 C          65.5383   93.1480   10.9448 C.ar    1  UNL1       -0.0013
     29 C          66.2040   92.5748   12.1607 C.ar    1  UNL1        0.0118
     30 C          68.5804   92.4889   14.5203 C.3     1  UNL1        0.2525
     31 O          68.3188   91.6177   13.3275 O.3     1  UNL1       -0.4717
@<TRIPOS>BOND
     1    30    31    1
     2    31    24    1
     3    24    25   ar
     4    25    26   ar
     5    26    27   ar
     6    27    28   ar
     7    28    29   ar
     8    29    23    1
     9    23    22    1
    10     1    22    1
    11     1     2    1
    12     2     3    1
    13     3     4    1
    14     4     5   ar
    15     5     6   ar
    16    11     6    1
    17    11    12    1
    18    12    13    1
    19    13    14    1
    20    14    15    1
    21    14    19    1
    22    19    20    1
    23    14    16    1
    24     6     7   ar
    25     7     8   ar
    26     8     9   ar
    27     9    10    1
    28    29    24   ar
    29    10     1    1
    30     9     4   ar
    31    16    11    1
    32    15    17    1
    33    15    18    1
    34    20    21    1
@<TRIPOS>MOLECULE
*****
 31 34 0 0 0
SMALL
GASTEIGER

@<TRIPOS>ATOM
      1 C          63.6832   90.2872   12.8986 C.3     1  UNL1        0.0050
      2 C          62.9052   89.8589   11.6898 C.3     1  UNL1        0.0050
      3 C          62.6253   88.4041   11.4548 C.3     1  UNL1        0.0260
      4 C          63.1233   87.3777   12.4286 C.ar    1  UNL1       -0.0264
      5 C          62.8433   85.9228   12.1935 C.ar    1  UNL1       -0.0089
      6 C          63.3414   84.8964   13.1673 C.ar    1  UNL1       -0.0228
      7 C          64.1194   85.3247   14.3762 C.ar    1  UNL1       -0.0046
      8 C          64.3993   86.7795   14.6112 C.ar    1  UNL1       -0.0049
      9 C          63.9013   87.8059   13.6374 C.ar    1  UNL1       -0.0262
     10 C          64.1812   89.2607   13.8724 C.3     1  UNL1        0.0260
     11 C          63.0615   83.4416   12.9323 C.3     1  UNL1        0.0237
     12 C          63.0110   82.7577   11.5982 C.3     1  UNL1        0.0058
     13 C          62.7012   81.3087   11.8315 C.3     1  UNL1        0.0170
     14 C          62.5602   81.0971   13.3098 C.3     1  UNL1        0.0666
     15 N          62.3640   80.5876   14.7069 N.3     1  UNL1       -0.3212
     16 C          62.7828   82.4153   13.9901 C.3     1  UNL1        0.0210
     17 H          62.1628   79.5880   14.6792 H       1  UNL1        0.1188
     18 H          61.5835   81.0796   15.1418 H       1  UNL1        0.1188
     19 C          62.2965   79.6723   12.9216 C.3     1  UNL1        0.1511
     20 O          62.7337   79.1678   11.5783 O.3     1  UNL1       -0.3806
     21 H          62.2310   79.6210   10.8835 H       1  UNL1        0.2105
     22 C          63.9631   91.7420   13.1337 C.3     1  UNL1        0.0051
     23 C          65.3157   92.3065   12.8149 C.3     1  UNL1        0.0294
     24 C          66.0231   92.4067   15.3128 C.ar    1  UNL1        0.1347
     25 C          67.0978   92.4156   16.3592 C.ar    1  UNL1        0.0366
     26 C          68.5397   92.3333   15.9542 C.ar    1  UNL1        0.0031
     27 C          68.9069   92.2421   14.5027 C.ar    1  UNL1       -0.0001
     28 C          67.8323   92.2332   13.4563 C.ar    1  UNL1       -0.0013
     29 C          66.3904   92.3155   13.8613 C.ar    1  UNL1        0.0118
     30 C          64.0363   91.5441   16.7476 C.3     1  UNL1        0.2525
     31 O          64.5812   92.4889   15.7178 O.3     1  UNL1       -0.4717
@<TRIPOS>BOND
     1    30    31    1
     2    31    24    1
     3    24    25   ar
     4    25    26   ar
     5    26    27   ar
     6    27    28   ar
     7    28    29   ar
     8    29    23    1
     9    23    22    1
    10     1    22    1
    11     1     2    1
    12     2     3    1
    13     3     4    1
    14     4     5   ar
    15     5     6   ar
    16    11     6    1
    17    11    12    1
    18    12    13    1
    19    13    14    1
    20    14    15    1
    21    14    19    1
    22    19    20    1
    23    14    16    1
    24     6     7   ar
    25     7     8   ar
    26     8     9   ar
    27     9    10    1
    28    29    24   ar
    29    10     1    1
    30     9     4   ar
    31    16    11    1
    32    15    17    1
    33    15    18    1
    34    20    21    1
@<TRIPOS>MOLECULE
*****
 31 34 0 0 0
SMALL
GASTEIGER

@<TRIPOS>ATOM
      1 C          63.4220   90.5311   11.6594 C.3     1  UNL1        0.0050
      2 C          62.6976   89.8048   10.5650 C.3     1  UNL1        0.0050
      3 C          62.4422   88.3316   10.6839 C.3     1  UNL1        0.0260
      4 C          62.9113   87.5845   11.8971 C.ar    1  UNL1       -0.0264
      5 C          62.6560   86.1112   12.0159 C.ar    1  UNL1       -0.0089
      6 C          63.1251   85.3641   13.2291 C.ar    1  UNL1       -0.0228
      7 C          63.8496   86.0905   14.3235 C.ar    1  UNL1       -0.0046
      8 C          64.1049   87.5638   14.2047 C.ar    1  UNL1       -0.0049
      9 C          63.6358   88.3108   12.9915 C.ar    1  UNL1       -0.0262
     10 C          63.8912   89.7841   12.8726 C.3     1  UNL1        0.0260
     11 C          62.8697   83.8908   13.3480 C.3     1  UNL1        0.0237
     12 C          62.4655   83.1639   14.5963 C.3     1  UNL1        0.0058
     13 C          62.3197   81.7096   14.2592 C.3     1  UNL1        0.0170
     14 C          62.6339   81.5377   12.8026 C.3     1  UNL1        0.0666
     15 N          62.8881   81.0632   11.4025 N.3     1  UNL1       -0.3212
     16 C          62.9738   82.8858   12.2394 C.3     1  UNL1        0.0210
     17 H          62.7437   80.0546   11.3538 H       1  UNL1        0.1188
     18 H          63.8486   81.2822   11.1384 H       1  UNL1        0.1188
     19 C          62.3471   80.0903   13.0730 C.3     1  UNL1        0.1511
     20 O          62.8345   79.4532   14.3405 O.3     1  UNL1       -0.3806
     21 H          63.8042   79.4288   14.3379 H       1  UNL1        0.2105
     22 C          63.6774   92.0045   11.5406 C.3     1  UNL1        0.0051
     23 C          65.0499   92.5024   11.1967 C.3     1  UNL1        0.0294
     24 C          67.5603   92.0473   11.6875 C.ar    1  UNL1        0.1347
     25 C          68.6839   91.8870   12.6682 C.ar    1  UNL1        0.0366
     26 C          68.4207   92.0214   14.1388 C.ar    1  UNL1        0.0031
     27 C          67.0340   92.3162   14.6287 C.ar    1  UNL1       -0.0001
     28 C          65.9104   92.4765   13.6480 C.ar    1  UNL1       -0.0013
     29 C          66.1735   92.3421   12.1774 C.ar    1  UNL1        0.0118
     30 C          68.0915   93.1341    9.3882 C.3     1  UNL1        0.2525
     31 O          67.8234   91.9129   10.2169 O.3     1  UNL1       -0.4717
@<TRIPOS>BOND
     1    30    31    1
     2    31    24    1
     3    24    25   ar
     4    25    26   ar
     5    26    27   ar
     6    27    28   ar
     7    28    29   ar
     8    29    23    1
     9    23    22    1
    10     1    22    1
    11     1     2    1
    12     2     3    1
    13     3     4    1
    14     4     5   ar
    15     5     6   ar
    16    11     6    1
    17    11    12    1
    18    12    13    1
    19    13    14    1
    20    14    15    1
    21    14    19    1
    22    19    20    1
    23    14    16    1
    24     6     7   ar
    25     7     8   ar
    26     8     9   ar
    27     9    10    1
    28    29    24   ar
    29    10     1    1
    30     9     4   ar
    31    16    11    1
    32    15    17    1
    33    15    18    1
    34    20    21    1
@<TRIPOS>MOLECULE
*****
 31 34 0 0 0
SMALL
GASTEIGER

@<TRIPOS>ATOM
      1 C          62.3506   86.2076   11.7127 C.3     1  UNL1        0.0050
      2 C          62.7359   87.6543   11.8057 C.3     1  UNL1        0.0050
      3 C          62.2160   88.6351   10.7969 C.3     1  UNL1        0.0260
      4 C          61.3109   88.1693    9.6952 C.ar    1  UNL1       -0.0264
      5 C          60.7911   89.1503    8.6864 C.ar    1  UNL1       -0.0089
      6 C          59.8860   88.6845    7.5847 C.ar    1  UNL1       -0.0228
      7 C          59.5007   87.2377    7.4917 C.ar    1  UNL1       -0.0046
      8 C          60.0206   86.2568    8.5005 C.ar    1  UNL1       -0.0049
      9 C          60.9257   86.7227    9.6022 C.ar    1  UNL1       -0.0262
     10 C          61.4455   85.7418   10.6110 C.3     1  UNL1        0.0260
     11 C          59.3661   89.6653    6.5759 C.3     1  UNL1        0.0237
     12 C          60.1977   90.5745    5.7204 C.3     1  UNL1        0.0058
     13 C          59.2689   91.3803    4.8613 C.3     1  UNL1        0.0170
     14 C          57.8633   90.9691    5.1859 C.3     1  UNL1        0.0666
     15 N          56.3804   90.7709    5.2936 N.3     1  UNL1       -0.3212
     16 C          57.9235   89.9092    6.2455 C.3     1  UNL1        0.0210
     17 H          55.9056   91.3958    4.6421 H       1  UNL1        0.1188
     18 H          56.0779   90.9782    6.2454 H       1  UNL1        0.1188
     19 C          57.4932   91.9876    4.1486 C.3     1  UNL1        0.1511
     20 O          58.5014   92.4146    3.1234 O.3     1  UNL1       -0.3806
     21 H          59.2281   92.8852    3.5609 H       1  UNL1        0.2105
     22 C          62.8705   85.2267   12.7215 C.3     1  UNL1        0.0051
     23 C          63.7052   84.0631   12.2751 C.3     1  UNL1        0.0294
     24 C          62.7256   82.2597   13.8684 C.ar    1  UNL1        0.1347
     25 C          62.2467   80.8583   14.1060 C.ar    1  UNL1        0.0366
     26 C          62.2684   79.8586   12.9879 C.ar    1  UNL1        0.0031
     27 C          62.7690   80.2604   11.6322 C.ar    1  UNL1       -0.0001
     28 C          63.2479   81.6619   11.3946 C.ar    1  UNL1       -0.0013
     29 C          63.2262   82.6615   12.5127 C.ar    1  UNL1        0.0118
     30 C          63.9847   83.6693   15.6511 C.3     1  UNL1        0.2525
     31 O          62.7039   83.2595   14.9865 O.3     1  UNL1       -0.4717
@<TRIPOS>BOND
     1    30    31    1
     2    31    24    1
     3    24    25   ar
     4    25    26   ar
     5    26    27   ar
     6    27    28   ar
     7    28    29   ar
     8    29    23    1
     9    23    22    1
    10     1    22    1
    11     1     2    1
    12     2     3    1
    13     3     4    1
    14     4     5   ar
    15     5     6   ar
    16    11     6    1
    17    11    12    1
    18    12    13    1
    19    13    14    1
    20    14    15    1
    21    14    19    1
    22    19    20    1
    23    14    16    1
    24     6     7   ar
    25     7     8   ar
    26     8     9   ar
    27     9    10    1
    28    29    24   ar
    29    10     1    1
    30     9     4   ar
    31    16    11    1
    32    15    17    1
    33    15    18    1
    34    20    21    1
@<TRIPOS>MOLECULE
*****
 31 34 0 0 0
SMALL
GASTEIGER

@<TRIPOS>ATOM
      1 C          62.6174   86.0792   11.7350 C.3     1  UNL1        0.0050
      2 C          62.8586   87.5490   11.9116 C.3     1  UNL1        0.0050
      3 C          62.2676   88.5280   10.9410 C.3     1  UNL1        0.0260
      4 C          61.4353   88.0372    9.7937 C.ar    1  UNL1       -0.0264
      5 C          60.8442   89.0163    8.8231 C.ar    1  UNL1       -0.0089
      6 C          60.0119   88.5254    7.6758 C.ar    1  UNL1       -0.0228
      7 C          59.7706   87.0555    7.4991 C.ar    1  UNL1       -0.0046
      8 C          60.3616   86.0765    8.4698 C.ar    1  UNL1       -0.0049
      9 C          61.1940   86.5673    9.6171 C.ar    1  UNL1       -0.0262
     10 C          61.7850   85.5883   10.5877 C.3     1  UNL1        0.0260
     11 C          59.4208   89.5044    6.7051 C.3     1  UNL1        0.0237
     12 C          60.1876   90.4576    5.8371 C.3     1  UNL1        0.0058
     13 C          59.1999   91.2444    5.0276 C.3     1  UNL1        0.0170
     14 C          57.8226   90.7775    5.3953 C.3     1  UNL1        0.0666
     15 N          56.3526   90.5244    5.5532 N.3     1  UNL1       -0.3212
     16 C          57.9592   89.7021    6.4321 C.3     1  UNL1        0.0210
     17 H          55.8323   91.1432    4.9313 H       1  UNL1        0.1188
     18 H          56.0785   90.7041    6.5191 H       1  UNL1        0.1188
     19 C          57.3787   91.8000    4.3915 C.3     1  UNL1        0.1511
     20 O          58.3483   92.3207    3.3724 O.3     1  UNL1       -0.3806
     21 H          59.0472   92.8241    3.8186 H       1  UNL1        0.2105
     22 C          63.2084   85.1001   12.7056 C.3     1  UNL1        0.0051
     23 C          64.2323   85.5569   13.7021 C.3     1  UNL1        0.0294
     24 C          63.2448   85.3871   16.0992 C.ar    1  UNL1        0.1347
     25 C          62.8087   86.0460   17.3742 C.ar    1  UNL1        0.0366
     26 C          62.9240   87.5337   17.5270 C.ar    1  UNL1        0.0031
     27 C          63.4753   88.3625   16.4049 C.ar    1  UNL1       -0.0001
     28 C          63.9114   87.7036   15.1300 C.ar    1  UNL1       -0.0013
     29 C          63.7962   86.2159   14.9771 C.ar    1  UNL1        0.0118
     30 C          61.9699   83.3098   15.1997 C.3     1  UNL1        0.2525
     31 O          63.1296   83.8994   15.9463 O.3     1  UNL1       -0.4717
@<TRIPOS>BOND
     1    30    31    1
     2    31    24    1
     3    24    25   ar
     4    25    26   ar
     5    26    27   ar
     6    27    28   ar
     7    28    29   ar
     8    29    23    1
     9    23    22    1
    10     1    22    1
    11     1     2    1
    12     2     3    1
    13     3     4    1
    14     4     5   ar
    15     5     6   ar
    16    11     6    1
    17    11    12    1
    18    12    13    1
    19    13    14    1
    20    14    15    1
    21    14    19    1
    22    19    20    1
    23    14    16    1
    24     6     7   ar
    25     7     8   ar
    26     8     9   ar
    27     9    10    1
    28    29    24   ar
    29    10     1    1
    30     9     4   ar
    31    16    11    1
    32    15    17    1
    33    15    18    1
    34    20    21    1
