@<TRIPOS>MOLECULE
*****
 32 35 0 0 0
SMALL
GASTEIGER

@<TRIPOS>ATOM
      1 C          63.5442   85.5593   12.9609 C.ar    1  UNL1       -0.0004
      2 C          64.2239   85.5359   14.2979 C.ar    1  UNL1       -0.0024
      3 C          64.5695   86.8230   14.9861 C.ar    1  UNL1       -0.0002
      4 C          64.2355   88.1336   14.3375 C.ar    1  UNL1        0.0030
      5 C          64.5812   89.4208   15.0258 C.ar    1  UNL1        0.0369
      6 C          64.2471   90.7314   14.3772 C.ar    1  UNL1        0.1386
      7 C          63.5674   90.7548   13.0402 C.ar    1  UNL1        0.0369
      8 C          63.2217   89.4677   12.3519 C.ar    1  UNL1        0.0031
      9 C          63.5558   88.1571   13.0006 C.ar    1  UNL1       -0.0001
     10 C          63.2101   86.8699   12.3123 C.ar    1  UNL1       -0.0024
     11 C          63.1985   84.2722   12.2726 C.3     1  UNL1        0.1240
     12 N          62.6158   83.1347   13.0579 N.ar    1  UNL1       -0.3045
     13 C          62.3225   81.7603   12.5336 C.ar    1  UNL1        0.0983
     14 C          61.7495   80.9481   13.6570 C.ar    1  UNL1        0.1193
     15 N          61.6886   81.8206   14.8756 N.ar    1  UNL1       -0.2223
     16 C          62.2241   83.1720   14.5053 C.ar    1  UNL1        0.1788
     17 C          64.5463   83.2446   10.3034 C.3     1  UNL1        0.0197
     18 C          63.4355   84.1225   10.7990 C.3     1  UNL1        0.0827
     19 N          62.5618   84.8507    9.8211 N.3     1  UNL1       -0.2677
     20 C          61.4116   85.6777   10.3141 C.3     1  UNL1        0.1046
     21 C          60.5380   86.4059    9.3361 C.3     1  UNL1        0.1595
     22 O          60.8145   86.3071    7.8651 O.3     1  UNL1       -0.3508
     23 C          61.9647   85.4800    7.3721 C.3     1  UNL1        0.1595
     24 C          62.8384   84.7519    8.3501 C.3     1  UNL1        0.1046
     25 O          64.5928   92.0185   15.0655 O.3     1  UNL1       -0.4751
     26 C          66.0158   92.4917   15.1004 C.3     1  UNL1        0.2103
     27 C          66.8754   92.3747   13.8768 C.3     1  UNL1        0.0724
     28 C          66.0223   93.3929   13.1801 C.3     1  UNL1        0.0093
     29 C          67.7285   91.3565   14.5735 C.3     1  UNL1        0.0093
     30 C          67.7350   92.2577   12.6531 C.2     1  UNL1        0.0532
     31 O          69.1025   91.6492   12.7526 O.co2   1  UNL1       -0.5491
     32 O          67.2271   92.7490   11.3300 O.co2   1  UNL1       -0.5491
@<TRIPOS>UNITY_ATOM_ATTR
31 1
charge -1
@<TRIPOS>BOND
     1    18    17    1
     2    18    11    1
     3    11     1    1
     4     1     2   ar
     5     2     3   ar
     6     3     4   ar
     7     4     5   ar
     8     5     6   ar
     9     6    25    1
    10    25    26    1
    11    26    27    1
    12    27    28    1
    13    27    29    1
    14    27    30    1
    15    30    31   ar
    16    30    32   ar
    17     6     7   ar
    18     7     8   ar
    19     8     9   ar
    20     9    10   ar
    21    11    12    1
    22    12    13   ar
    23    13    14   ar
    24    14    15   ar
    25    15    16   ar
    26    18    19    1
    27    19    20    1
    28    20    21    1
    29    21    22    1
    30    22    23    1
    31    23    24    1
    32    10     1   ar
    33    16    12   ar
    34    24    19    1
    35     9     4   ar
@<TRIPOS>MOLECULE
*****
 32 35 0 0 0
SMALL
GASTEIGER

@<TRIPOS>ATOM
      1 C          62.4415   88.0174   10.4120 C.ar    1  UNL1       -0.0004
      2 C          62.4277   89.4598   10.0005 C.ar    1  UNL1       -0.0024
      3 C          62.9339   90.5129   10.9410 C.ar    1  UNL1       -0.0002
      4 C          63.4539   90.1237   12.2931 C.ar    1  UNL1        0.0030
      5 C          63.9601   91.1769   13.2336 C.ar    1  UNL1        0.0369
      6 C          64.4801   90.7876   14.5857 C.ar    1  UNL1        0.1386
      7 C          64.4940   89.3452   14.9972 C.ar    1  UNL1        0.0369
      8 C          63.9878   88.2921   14.0566 C.ar    1  UNL1        0.0031
      9 C          63.4677   88.6813   12.7046 C.ar    1  UNL1       -0.0001
     10 C          62.9616   87.6282   11.7640 C.ar    1  UNL1       -0.0024
     11 C          61.9353   86.9642    9.4714 C.3     1  UNL1        0.1240
     12 N          60.6686   87.1928    8.7011 N.ar    1  UNL1       -0.3045
     13 C          60.0623   88.5258    8.3767 C.ar    1  UNL1        0.0983
     14 C          58.8048   88.2853    7.5951 C.ar    1  UNL1        0.1193
     15 N          58.6340   86.8035    7.4365 N.ar    1  UNL1       -0.2223
     16 C          59.7859   86.1283    8.1200 C.ar    1  UNL1        0.1788
     17 C          63.1966   85.2821    7.9451 C.3     1  UNL1        0.0197
     18 C          62.6958   85.6826    9.3011 C.3     1  UNL1        0.0827
     19 N          62.9554   84.8013   10.4869 N.3     1  UNL1       -0.2677
     20 C          62.1830   85.0054   11.7564 C.3     1  UNL1        0.1046
     21 C          62.4427   84.1241   12.9422 C.3     1  UNL1        0.1595
     22 O          63.4747   83.0388   12.8584 O.3     1  UNL1       -0.3508
     23 C          64.2471   82.8348   11.5888 C.3     1  UNL1        0.1595
     24 C          63.9875   83.7160   10.4031 C.3     1  UNL1        0.1046
     25 O          64.9863   91.8408   15.5262 O.3     1  UNL1       -0.4751
     26 C          65.8581   92.9484   15.0130 C.3     1  UNL1        0.2103
     27 C          67.1963   92.6330   14.4134 C.3     1  UNL1        0.0724
     28 C          66.7216   93.1438   13.0854 C.3     1  UNL1        0.0093
     29 C          67.6710   92.1222   15.7414 C.3     1  UNL1        0.0093
     30 C          68.5345   92.3176   13.8137 C.2     1  UNL1        0.0532
     31 O          68.6170   91.5952   12.5017 O.co2   1  UNL1       -0.5491
     32 O          69.7903   92.7246   14.5260 O.co2   1  UNL1       -0.5491
@<TRIPOS>UNITY_ATOM_ATTR
31 1
charge -1
@<TRIPOS>BOND
     1    18    17    1
     2    18    11    1
     3    11     1    1
     4     1     2   ar
     5     2     3   ar
     6     3     4   ar
     7     4     5   ar
     8     5     6   ar
     9     6    25    1
    10    25    26    1
    11    26    27    1
    12    27    28    1
    13    27    29    1
    14    27    30    1
    15    30    31   ar
    16    30    32   ar
    17     6     7   ar
    18     7     8   ar
    19     8     9   ar
    20     9    10   ar
    21    11    12    1
    22    12    13   ar
    23    13    14   ar
    24    14    15   ar
    25    15    16   ar
    26    18    19    1
    27    19    20    1
    28    20    21    1
    29    21    22    1
    30    22    23    1
    31    23    24    1
    32    10     1   ar
    33    16    12   ar
    34    24    19    1
    35     9     4   ar
@<TRIPOS>MOLECULE
*****
 32 35 0 0 0
SMALL
GASTEIGER

@<TRIPOS>ATOM
      1 C          62.8149   85.9339   12.1977 C.ar    1  UNL1       -0.0004
      2 C          63.1433   87.3802   12.4220 C.ar    1  UNL1       -0.0024
      3 C          62.5302   88.4329   11.5469 C.ar    1  UNL1       -0.0002
      4 C          61.5888   88.0393   10.4474 C.ar    1  UNL1        0.0030
      5 C          60.9757   89.0921    9.5723 C.ar    1  UNL1        0.0369
      6 C          60.0343   88.6985    8.4728 C.ar    1  UNL1        0.1386
      7 C          59.7059   87.2521    8.2486 C.ar    1  UNL1        0.0369
      8 C          60.3190   86.1994    9.1237 C.ar    1  UNL1        0.0031
      9 C          61.2604   86.5930   10.2232 C.ar    1  UNL1       -0.0001
     10 C          61.8735   85.5403   11.0983 C.ar    1  UNL1       -0.0024
     11 C          63.4280   84.8811   13.0729 C.3     1  UNL1        0.1240
     12 N          63.1492   83.4310   12.8093 N.ar    1  UNL1       -0.3045
     13 C          62.3824   82.5037   13.7049 C.ar    1  UNL1        0.0983
     14 C          62.3475   81.1532   13.0530 C.ar    1  UNL1        0.1193
     15 N          63.0926   81.2459   11.7545 N.ar    1  UNL1       -0.2223
     16 C          63.5881   82.6537   11.6039 C.ar    1  UNL1        0.1788
     17 C          65.7558   84.8447   14.2262 C.3     1  UNL1        0.0197
     18 C          64.3199   85.2784   14.2116 C.3     1  UNL1        0.0827
     19 N          63.7760   86.1095   15.3356 N.3     1  UNL1       -0.2677
     20 C          63.0304   85.4542   16.4602 C.3     1  UNL1        0.1046
     21 C          62.4865   86.2852   17.5842 C.3     1  UNL1        0.1595
     22 O          62.6881   87.7716   17.5838 O.3     1  UNL1       -0.3508
     23 C          63.4337   88.4270   16.4592 C.3     1  UNL1        0.1595
     24 C          63.9777   87.5959   15.3351 C.3     1  UNL1        0.1046
     25 O          59.4212   89.7512    7.5977 O.3     1  UNL1       -0.4751
     26 C          59.7428   89.7895    6.1330 C.3     1  UNL1        0.2103
     27 C          59.1589   90.8644    5.2649 C.3     1  UNL1        0.0724
     28 C          57.7869   90.5244    5.7667 C.3     1  UNL1        0.0093
     29 C          60.5310   91.2044    4.7630 C.3     1  UNL1        0.0093
     30 C          58.5750   91.9392    4.3967 C.2     1  UNL1        0.0532
     31 O          57.1256   92.3033    4.5264 O.co2   1  UNL1       -0.5491
     32 O          59.4405   92.6500    3.3988 O.co2   1  UNL1       -0.5491
@<TRIPOS>UNITY_ATOM_ATTR
31 1
charge -1
@<TRIPOS>BOND
     1    18    17    1
     2    18    11    1
     3    11     1    1
     4     1     2   ar
     5     2     3   ar
     6     3     4   ar
     7     4     5   ar
     8     5     6   ar
     9     6    25    1
    10    25    26    1
    11    26    27    1
    12    27    28    1
    13    27    29    1
    14    27    30    1
    15    30    31   ar
    16    30    32   ar
    17     6     7   ar
    18     7     8   ar
    19     8     9   ar
    20     9    10   ar
    21    11    12    1
    22    12    13   ar
    23    13    14   ar
    24    14    15   ar
    25    15    16   ar
    26    18    19    1
    27    19    20    1
    28    20    21    1
    29    21    22    1
    30    22    23    1
    31    23    24    1
    32    10     1   ar
    33    16    12   ar
    34    24    19    1
    35     9     4   ar
@<TRIPOS>MOLECULE
*****
 32 35 0 0 0
SMALL
GASTEIGER

@<TRIPOS>ATOM
      1 C          65.0396   92.0730   12.1541 C.ar    1  UNL1       -0.0004
      2 C          64.2967   92.3882   10.8897 C.ar    1  UNL1       -0.0024
      3 C          63.3143   91.4018   10.3313 C.ar    1  UNL1       -0.0002
      4 C          63.0749   90.1001   11.0372 C.ar    1  UNL1        0.0030
      5 C          62.0924   89.1136   10.4788 C.ar    1  UNL1        0.0369
      6 C          61.8530   87.8120   11.1847 C.ar    1  UNL1        0.1386
      7 C          62.5960   87.4968   12.4491 C.ar    1  UNL1        0.0369
      8 C          63.5784   88.4832   13.0075 C.ar    1  UNL1        0.0031
      9 C          63.8178   89.7849   12.3016 C.ar    1  UNL1       -0.0001
     10 C          64.8002   90.7713   12.8600 C.ar    1  UNL1       -0.0024
     11 C          66.0220   93.0594   12.7126 C.3     1  UNL1        0.1240
     12 N          66.5526   92.8834   14.1045 N.ar    1  UNL1       -0.3045
     13 C          67.9861   92.6487   14.4785 C.ar    1  UNL1        0.0983
     14 C          68.0624   92.5314   15.9720 C.ar    1  UNL1        0.1193
     15 N          66.6759   92.6936   16.5210 N.ar    1  UNL1       -0.2223
     16 C          65.7429   92.9112   15.3668 C.ar    1  UNL1        0.1788
     17 C          66.3076   95.6218   12.3916 C.3     1  UNL1        0.0197
     18 C          66.4738   94.2218   11.8791 C.3     1  UNL1        0.0827
     19 N          67.0918   93.9844   10.5331 N.3     1  UNL1       -0.2677
     20 C          67.8794   92.7332   10.2796 C.3     1  UNL1        0.1046
     21 C          68.4974   92.4958    8.9336 C.3     1  UNL1        0.1595
     22 O          68.3278   93.5095    7.8411 O.3     1  UNL1       -0.3508
     23 C          67.5402   94.7607    8.0946 C.3     1  UNL1        0.1595
     24 C          66.9222   94.9982    9.4406 C.3     1  UNL1        0.1046
     25 O          60.8707   86.8256   10.6263 O.3     1  UNL1       -0.4751
     26 C          60.4392   86.9260    9.1931 C.3     1  UNL1        0.2103
     27 C          61.0044   85.9838    8.1720 C.3     1  UNL1        0.0724
     28 C          59.7120   86.0321    7.4122 C.3     1  UNL1        0.0093
     29 C          62.2968   85.9356    8.9317 C.3     1  UNL1        0.0093
     30 C          61.5696   85.0417    7.1508 C.2     1  UNL1        0.0532
     31 O          63.0279   84.6915    7.1793 O.co2   1  UNL1       -0.5491
     32 O          60.6765   84.4497    6.1010 O.co2   1  UNL1       -0.5491
@<TRIPOS>UNITY_ATOM_ATTR
31 1
charge -1
@<TRIPOS>BOND
     1    18    17    1
     2    18    11    1
     3    11     1    1
     4     1     2   ar
     5     2     3   ar
     6     3     4   ar
     7     4     5   ar
     8     5     6   ar
     9     6    25    1
    10    25    26    1
    11    26    27    1
    12    27    28    1
    13    27    29    1
    14    27    30    1
    15    30    31   ar
    16    30    32   ar
    17     6     7   ar
    18     7     8   ar
    19     8     9   ar
    20     9    10   ar
    21    11    12    1
    22    12    13   ar
    23    13    14   ar
    24    14    15   ar
    25    15    16   ar
    26    18    19    1
    27    19    20    1
    28    20    21    1
    29    21    22    1
    30    22    23    1
    31    23    24    1
    32    10     1   ar
    33    16    12   ar
    34    24    19    1
    35     9     4   ar
@<TRIPOS>MOLECULE
*****
 32 35 0 0 0
SMALL
GASTEIGER

@<TRIPOS>ATOM
      1 C          63.6079   90.5099   12.7012 C.ar    1  UNL1       -0.0004
      2 C          63.8589   91.3956   11.5170 C.ar    1  UNL1       -0.0024
      3 C          63.0397   91.2322   10.2712 C.ar    1  UNL1       -0.0002
      4 C          61.9694   90.1831   10.2096 C.ar    1  UNL1        0.0030
      5 C          61.1501   90.0197    8.9637 C.ar    1  UNL1        0.0369
      6 C          60.0798   88.9706    8.9021 C.ar    1  UNL1        0.1386
      7 C          59.8288   88.0848   10.0864 C.ar    1  UNL1        0.0369
      8 C          60.6480   88.2482   11.3322 C.ar    1  UNL1        0.0031
      9 C          61.7183   89.2973   11.3938 C.ar    1  UNL1       -0.0001
     10 C          62.5376   89.4607   12.6396 C.ar    1  UNL1       -0.0024
     11 C          64.4271   90.6732   13.9471 C.3     1  UNL1        0.1240
     12 N          65.7733   91.3314   13.8786 N.ar    1  UNL1       -0.3045
     13 C          66.8737   91.1954   14.8889 C.ar    1  UNL1        0.0983
     14 C          68.0359   92.0211   14.4224 C.ar    1  UNL1        0.1193
     15 N          67.6538   92.6673   13.1238 N.ar    1  UNL1       -0.2223
     16 C          66.2555   92.2411   12.7877 C.ar    1  UNL1        0.1788
     17 C          63.4437   91.1570   16.3028 C.3     1  UNL1        0.0197
     18 C          63.9002   90.1785   15.2614 C.3     1  UNL1        0.0827
     19 N          63.8298   88.7052   15.5346 N.3     1  UNL1       -0.2677
     20 C          64.4981   87.7371   14.6039 C.3     1  UNL1        0.1046
     21 C          64.4276   86.2639   14.8770 C.3     1  UNL1        0.1595
     22 O          63.6889   85.7587   16.0808 O.3     1  UNL1       -0.3508
     23 C          63.0205   86.7269   17.0115 C.3     1  UNL1        0.1595
     24 C          63.0910   88.2001   16.7384 C.3     1  UNL1        0.1046
     25 O          59.2606   88.8072    7.6563 O.3     1  UNL1       -0.4751
     26 C          59.7676   89.3420    6.3497 C.3     1  UNL1        0.2103
     27 C          59.0589   90.4820    5.6803 C.3     1  UNL1        0.0724
     28 C          57.7522   89.9932    6.2311 C.3     1  UNL1        0.0093
     29 C          60.3657   90.9709    5.1295 C.3     1  UNL1        0.0093
     30 C          58.3503   91.6221    5.0110 C.2     1  UNL1        0.0532
     31 O          56.8527   91.6991    5.0468 O.co2   1  UNL1       -0.5491
     32 O          59.1392   92.6852    4.3057 O.co2   1  UNL1       -0.5491
@<TRIPOS>UNITY_ATOM_ATTR
31 1
charge -1
@<TRIPOS>BOND
     1    18    17    1
     2    18    11    1
     3    11     1    1
     4     1     2   ar
     5     2     3   ar
     6     3     4   ar
     7     4     5   ar
     8     5     6   ar
     9     6    25    1
    10    25    26    1
    11    26    27    1
    12    27    28    1
    13    27    29    1
    14    27    30    1
    15    30    31   ar
    16    30    32   ar
    17     6     7   ar
    18     7     8   ar
    19     8     9   ar
    20     9    10   ar
    21    11    12    1
    22    12    13   ar
    23    13    14   ar
    24    14    15   ar
    25    15    16   ar
    26    18    19    1
    27    19    20    1
    28    20    21    1
    29    21    22    1
    30    22    23    1
    31    23    24    1
    32    10     1   ar
    33    16    12   ar
    34    24    19    1
    35     9     4   ar
@<TRIPOS>MOLECULE
*****
 32 35 0 0 0
SMALL
GASTEIGER

@<TRIPOS>ATOM
      1 C          63.1933   86.5307   12.1998 C.ar    1  UNL1       -0.0004
      2 C          63.7765   86.1160   13.5181 C.ar    1  UNL1       -0.0024
      3 C          64.2325   87.1568   14.4972 C.ar    1  UNL1       -0.0002
      4 C          64.1052   88.6124   14.1581 C.ar    1  UNL1        0.0030
      5 C          64.5612   89.6533   15.1373 C.ar    1  UNL1        0.0369
      6 C          64.4339   91.1089   14.7981 C.ar    1  UNL1        0.1386
      7 C          63.8507   91.5237   13.4798 C.ar    1  UNL1        0.0369
      8 C          63.3947   90.4828   12.5007 C.ar    1  UNL1        0.0031
      9 C          63.5220   89.0272   12.8398 C.ar    1  UNL1       -0.0001
     10 C          63.0660   87.9864   11.8607 C.ar    1  UNL1       -0.0024
     11 C          62.7373   85.4899   11.2206 C.3     1  UNL1        0.1240
     12 N          61.7711   85.8554   10.1331 N.ar    1  UNL1       -0.3045
     13 C          61.9005   85.4983    8.6820 C.ar    1  UNL1        0.0983
     14 C          60.7152   86.0645    7.9578 C.ar    1  UNL1        0.1193
     15 N          59.8532   86.7715    8.9613 N.ar    1  UNL1       -0.2223
     16 C          60.5058   86.6423   10.3057 C.ar    1  UNL1        0.1788
     17 C          64.2374   83.5655   10.3279 C.3     1  UNL1        0.0197
     18 C          63.2476   84.0835   11.3290 C.3     1  UNL1        0.0827
     19 N          62.7681   83.1951   12.4384 N.3     1  UNL1       -0.2677
     20 C          62.4970   81.7439   12.1732 C.3     1  UNL1        0.1046
     21 C          62.0175   80.8555   13.2826 C.3     1  UNL1        0.1595
     22 O          61.8091   81.4183   14.6573 O.3     1  UNL1       -0.3508
     23 C          62.0802   82.8696   14.9226 C.3     1  UNL1        0.1595
     24 C          62.5597   83.7580   13.8132 C.3     1  UNL1        0.1046
     25 O          64.8899   92.1498   15.7772 O.3     1  UNL1       -0.4751
     26 C          66.2889   92.6861   15.7046 C.3     1  UNL1        0.2103
     27 C          67.0998   92.4995   14.4566 C.3     1  UNL1        0.0724
     28 C          66.4748   93.7289   13.8667 C.3     1  UNL1        0.0093
     29 C          67.7247   91.2702   15.0466 C.3     1  UNL1        0.0093
     30 C          67.9107   92.3129   13.2086 C.2     1  UNL1        0.0532
     31 O          69.3618   91.9450   13.3051 O.co2   1  UNL1       -0.5491
     32 O          67.2707   92.4940   11.8642 O.co2   1  UNL1       -0.5491
@<TRIPOS>UNITY_ATOM_ATTR
31 1
charge -1
@<TRIPOS>BOND
     1    18    17    1
     2    18    11    1
     3    11     1    1
     4     1     2   ar
     5     2     3   ar
     6     3     4   ar
     7     4     5   ar
     8     5     6   ar
     9     6    25    1
    10    25    26    1
    11    26    27    1
    12    27    28    1
    13    27    29    1
    14    27    30    1
    15    30    31   ar
    16    30    32   ar
    17     6     7   ar
    18     7     8   ar
    19     8     9   ar
    20     9    10   ar
    21    11    12    1
    22    12    13   ar
    23    13    14   ar
    24    14    15   ar
    25    15    16   ar
    26    18    19    1
    27    19    20    1
    28    20    21    1
    29    21    22    1
    30    22    23    1
    31    23    24    1
    32    10     1   ar
    33    16    12   ar
    34    24    19    1
    35     9     4   ar
@<TRIPOS>MOLECULE
*****
 32 35 0 0 0
SMALL
GASTEIGER

@<TRIPOS>ATOM
      1 C          72.2505   73.7939   14.4678 C.ar    1  UNL1       -0.0004
      2 C          73.2932   74.5119   15.2723 C.ar    1  UNL1       -0.0024
      3 C          73.6299   75.9398   14.9598 C.ar    1  UNL1       -0.0002
      4 C          72.9239   76.6497   13.8429 C.ar    1  UNL1        0.0030
      5 C          73.2607   78.0777   13.5305 C.ar    1  UNL1        0.0369
      6 C          72.5547   78.7877   12.4135 C.ar    1  UNL1        0.1386
      7 C          71.5119   78.0696   11.6090 C.ar    1  UNL1        0.0369
      8 C          71.1752   76.6417   11.9215 C.ar    1  UNL1        0.0031
      9 C          71.8812   75.9318   13.0384 C.ar    1  UNL1       -0.0001
     10 C          71.5445   74.5039   13.3508 C.ar    1  UNL1       -0.0024
     11 C          71.9137   72.3659   14.7802 C.3     1  UNL1        0.1240
     12 N          71.3313   72.0076   16.1153 N.ar    1  UNL1       -0.3045
     13 C          71.3696   70.6533   16.7591 C.ar    1  UNL1        0.0983
     14 C          70.6704   70.7492   18.0826 C.ar    1  UNL1        0.1193
     15 N          70.1999   72.1629   18.2569 N.ar    1  UNL1       -0.2223
     16 C          70.6084   72.9405   17.0410 C.ar    1  UNL1        0.1788
     17 C          73.5381   70.7338   13.5770 C.3     1  UNL1        0.0197
     18 C          72.1593   71.2964   13.7576 C.3     1  UNL1        0.0827
     19 N          71.0262   70.7895   12.9155 N.3     1  UNL1       -0.2677
     20 C          70.2300   69.6009   13.3664 C.3     1  UNL1        0.1046
     21 C          69.0969   69.0939   12.5244 C.3     1  UNL1        0.1595
     22 O          68.7599   69.7756   11.2315 O.3     1  UNL1       -0.3508
     23 C          69.5561   70.9642   10.7805 C.3     1  UNL1        0.1595
     24 C          70.6892   71.4712   11.6225 C.3     1  UNL1        0.1046
     25 O          72.8914   80.2156   12.1011 O.3     1  UNL1       -0.4751
     26 C          73.6294   80.5534   10.8396 C.3     1  UNL1        0.2103
     27 C          72.8837   81.0975    9.6573 C.3     1  UNL1        0.0724
     28 C          72.5438   82.3314   10.4395 C.3     1  UNL1        0.0093
     29 C          73.2235   79.8635    8.8751 C.3     1  UNL1        0.0093
     30 C          72.1380   81.6416    8.4750 C.2     1  UNL1        0.0532
     31 O          72.1415   83.1161    8.1997 O.co2   1  UNL1       -0.5491
     32 O          71.3886   80.7111    7.5679 O.co2   1  UNL1       -0.5491
@<TRIPOS>UNITY_ATOM_ATTR
31 1
charge -1
@<TRIPOS>BOND
     1    18    17    1
     2    18    11    1
     3    11     1    1
     4     1     2   ar
     5     2     3   ar
     6     3     4   ar
     7     4     5   ar
     8     5     6   ar
     9     6    25    1
    10    25    26    1
    11    26    27    1
    12    27    28    1
    13    27    29    1
    14    27    30    1
    15    30    31   ar
    16    30    32   ar
    17     6     7   ar
    18     7     8   ar
    19     8     9   ar
    20     9    10   ar
    21    11    12    1
    22    12    13   ar
    23    13    14   ar
    24    14    15   ar
    25    15    16   ar
    26    18    19    1
    27    19    20    1
    28    20    21    1
    29    21    22    1
    30    22    23    1
    31    23    24    1
    32    10     1   ar
    33    16    12   ar
    34    24    19    1
    35     9     4   ar
@<TRIPOS>MOLECULE
*****
 32 35 0 0 0
SMALL
GASTEIGER

@<TRIPOS>ATOM
      1 C          62.6523   87.6676   11.5448 C.ar    1  UNL1       -0.0004
      2 C          62.4396   88.8727   10.6775 C.ar    1  UNL1       -0.0024
      3 C          62.9749   90.2075   11.1038 C.ar    1  UNL1       -0.0002
      4 C          63.7230   90.3371   12.3975 C.ar    1  UNL1        0.0030
      5 C          64.2584   91.6719   12.8238 C.ar    1  UNL1        0.0369
      6 C          65.0065   91.8015   14.1174 C.ar    1  UNL1        0.1386
      7 C          65.2192   90.5963   14.9848 C.ar    1  UNL1        0.0369
      8 C          64.6838   89.2615   14.5585 C.ar    1  UNL1        0.0031
      9 C          63.9357   89.1319   13.2648 C.ar    1  UNL1       -0.0001
     10 C          63.4004   87.7972   12.8385 C.ar    1  UNL1       -0.0024
     11 C          62.1170   86.3328   11.1185 C.3     1  UNL1        0.1240
     12 N          61.4278   86.1894    9.7939 N.ar    1  UNL1       -0.3045
     13 C          62.0336   85.6301    8.5408 C.ar    1  UNL1        0.0983
     14 C          60.9921   85.6752    7.4622 C.ar    1  UNL1        0.1193
     15 N          59.7427   86.2624    8.0487 N.ar    1  UNL1       -0.2223
     16 C          60.0119   86.5802    9.4897 C.ar    1  UNL1        0.1788
     17 C          61.8747   85.2346   13.4606 C.3     1  UNL1        0.0197
     18 C          62.2707   85.1414   12.0167 C.3     1  UNL1        0.0827
     19 N          62.8204   83.8568   11.4712 N.3     1  UNL1       -0.2677
     20 C          62.2949   82.5438   11.9712 C.3     1  UNL1        0.1046
     21 C          62.8447   81.2592   11.4257 C.3     1  UNL1        0.1595
     22 O          63.9199   81.2875   10.3803 O.3     1  UNL1       -0.3508
     23 C          64.4454   82.6005    9.8802 C.3     1  UNL1        0.1595
     24 C          63.8957   83.8851   10.4257 C.3     1  UNL1        0.1046
     25 O          65.5418   93.1363   14.5438 O.3     1  UNL1       -0.4751
     26 C          66.6946   93.7519   13.8075 C.3     1  UNL1        0.2103
     27 C          66.9879   93.3410   12.3950 C.3     1  UNL1        0.0724
     28 C          66.1974   94.5117   11.8904 C.3     1  UNL1        0.0093
     29 C          67.7783   92.1704   12.8997 C.3     1  UNL1        0.0093
     30 C          67.2811   92.9302   10.9826 C.2     1  UNL1        0.0532
     31 O          68.5267   92.1548   10.6702 O.co2   1  UNL1       -0.5491
     32 O          66.3288   93.2946    9.8824 O.co2   1  UNL1       -0.5491
@<TRIPOS>UNITY_ATOM_ATTR
31 1
charge -1
@<TRIPOS>BOND
     1    18    17    1
     2    18    11    1
     3    11     1    1
     4     1     2   ar
     5     2     3   ar
     6     3     4   ar
     7     4     5   ar
     8     5     6   ar
     9     6    25    1
    10    25    26    1
    11    26    27    1
    12    27    28    1
    13    27    29    1
    14    27    30    1
    15    30    31   ar
    16    30    32   ar
    17     6     7   ar
    18     7     8   ar
    19     8     9   ar
    20     9    10   ar
    21    11    12    1
    22    12    13   ar
    23    13    14   ar
    24    14    15   ar
    25    15    16   ar
    26    18    19    1
    27    19    20    1
    28    20    21    1
    29    21    22    1
    30    22    23    1
    31    23    24    1
    32    10     1   ar
    33    16    12   ar
    34    24    19    1
    35     9     4   ar
@<TRIPOS>MOLECULE
*****
 32 35 0 0 0
SMALL
GASTEIGER

@<TRIPOS>ATOM
      1 C          62.5553   87.5578   11.1531 C.ar    1  UNL1       -0.0004
      2 C          62.4226   88.8453   10.3951 C.ar    1  UNL1       -0.0024
      3 C          62.9152   90.1262   11.0006 C.ar    1  UNL1       -0.0002
      4 C          63.5404   90.1196   12.3640 C.ar    1  UNL1        0.0030
      5 C          64.0330   91.4006   12.9695 C.ar    1  UNL1        0.0369
      6 C          64.6583   91.3940   14.3329 C.ar    1  UNL1        0.1386
      7 C          64.7910   90.1064   15.0909 C.ar    1  UNL1        0.0369
      8 C          64.2985   88.8255   14.4855 C.ar    1  UNL1        0.0031
      9 C          63.6732   88.8321   13.1220 C.ar    1  UNL1       -0.0001
     10 C          63.1806   87.5512   12.5166 C.ar    1  UNL1       -0.0024
     11 C          62.0628   86.2768   10.5477 C.3     1  UNL1        0.1240
     12 N          62.5324   84.9605   11.0925 N.ar    1  UNL1       -0.3045
     13 C          62.1758   84.3820   12.4297 C.ar    1  UNL1        0.0983
     14 C          62.8641   83.0556   12.5595 C.ar    1  UNL1        0.1193
     15 N          63.6461   82.8143   11.3024 N.ar    1  UNL1       -0.2223
     16 C          63.4411   83.9916   10.3958 C.ar    1  UNL1        0.1788
     17 C          59.7970   87.0418    9.5323 C.3     1  UNL1        0.0197
     18 C          61.1007   86.3121    9.3975 C.3     1  UNL1        0.0827
     19 N          61.4422   85.6179    8.1124 N.3     1  UNL1       -0.2677
     20 C          60.3499   85.1924    7.1766 C.3     1  UNL1        0.1046
     21 C          60.6914   84.4981    5.8915 C.3     1  UNL1        0.1595
     22 O          62.1251   84.2293    5.5423 O.3     1  UNL1       -0.3508
     23 C          63.2175   84.6547    6.4782 C.3     1  UNL1        0.1595
     24 C          62.8760   85.3490    7.7632 C.3     1  UNL1        0.1046
     25 O          65.1508   92.6749   14.9384 O.3     1  UNL1       -0.4751
     26 C          66.3190   93.3920   14.3291 C.3     1  UNL1        0.2103
     27 C          67.7165   92.9298   14.6179 C.3     1  UNL1        0.0724
     28 C          67.8196   92.3735   13.2287 C.3     1  UNL1        0.0093
     29 C          67.6133   93.4861   16.0071 C.3     1  UNL1        0.0093
     30 C          69.1139   92.4677   14.9067 C.2     1  UNL1        0.0532
     31 O          69.5623   92.2758   16.3252 O.co2   1  UNL1       -0.5491
     32 O          70.0630   92.1972   13.7770 O.co2   1  UNL1       -0.5491
@<TRIPOS>UNITY_ATOM_ATTR
31 1
charge -1
@<TRIPOS>BOND
     1    18    17    1
     2    18    11    1
     3    11     1    1
     4     1     2   ar
     5     2     3   ar
     6     3     4   ar
     7     4     5   ar
     8     5     6   ar
     9     6    25    1
    10    25    26    1
    11    26    27    1
    12    27    28    1
    13    27    29    1
    14    27    30    1
    15    30    31   ar
    16    30    32   ar
    17     6     7   ar
    18     7     8   ar
    19     8     9   ar
    20     9    10   ar
    21    11    12    1
    22    12    13   ar
    23    13    14   ar
    24    14    15   ar
    25    15    16   ar
    26    18    19    1
    27    19    20    1
    28    20    21    1
    29    21    22    1
    30    22    23    1
    31    23    24    1
    32    10     1   ar
    33    16    12   ar
    34    24    19    1
    35     9     4   ar
