@<TRIPOS>MOLECULE
*****
 36 39 0 0 0
SMALL
GASTEIGER

@<TRIPOS>ATOM
      1 C          63.3489   85.1778   15.1574 C.ar    1  UNL1        0.1534
      2 C          63.0810   85.9983   16.3841 C.ar    1  UNL1        0.0351
      3 C          63.3568   87.4727   16.3751 C.ar    1  UNL1        0.0722
      4 CL         63.0890   88.2933   17.6019 Cl      1  UNL1       -0.0809
      5 C          63.9004   88.1265   15.1394 C.ar    1  UNL1        0.0577
      6 C          64.1682   87.3060   13.9127 C.ar    1  UNL1        0.0462
      7 C          63.8924   85.8316   13.9217 C.ar    1  UNL1        0.1602
      8 F          64.1602   85.0110   12.6949 F       1  UNL1       -0.2027
      9 O          64.5360   83.4309   15.3550 O.2     1  UNL1       -0.1498
     10 S          63.0731   83.7033   15.1663 S.O2    1  UNL1        0.0772
     11 O          61.6102   83.9757   14.9777 O.2     1  UNL1       -0.1498
     12 N          62.7974   82.2289   15.1753 N.pl3   1  UNL1       -0.1936
     13 H          62.6292   81.7648   16.0271 H       1  UNL1        0.1758
     14 C          62.7780   81.4617   13.8864 C.ar    1  UNL1        0.1807
     15 N          62.4178   80.0143   13.7273 N.ar    1  UNL1       -0.2190
     16 C          62.5326   79.6653   12.2730 C.ar    1  UNL1        0.1372
     17 C          62.9636   80.8970   11.5333 C.ar    1  UNL1        0.1915
     18 F          63.2013   81.0003   10.0559 F       1  UNL1       -0.1953
     19 S          63.1153   82.0073   12.5305 S.2     1  UNL1       -0.0209
     20 N          64.1761   89.6010   15.1304 N.pl3   1  UNL1       -0.3306
     21 H          64.8612   89.9773   15.7291 H       1  UNL1        0.1469
     22 C          63.4081   90.5021   14.2095 C.3     1  UNL1        0.1075
     23 C          64.1337   91.3163   13.1795 C.3     1  UNL1        0.0963
     24 N          65.2293   92.2513   13.5982 N.3     1  UNL1       -0.2935
     25 C          65.9548   93.0655   12.5683 C.3     1  UNL1        0.0735
     26 C          65.5846   92.9447   11.1197 C.3     1  UNL1        0.0428
     27 C          64.4889   92.0097   10.7011 C.2     1  UNL1       -0.0276
     28 C          63.7635   91.1955   11.7310 C.2     1  UNL1       -0.0106
     29 H          65.9319   91.6866   14.0756 H       1  UNL1        0.1236
     30 C          62.6678   90.2605   11.3123 C.ar    1  UNL1       -0.0028
     31 C          61.3088   90.7998   10.9774 C.ar    1  UNL1        0.0020
     32 C          60.2131   89.8648   10.5588 C.ar    1  UNL1        0.0296
     33 C          60.4764   88.3905   10.4750 C.ar    1  UNL1        0.1401
     34 F          59.3807   87.4555   10.0564 F       1  UNL1       -0.2042
     35 C          61.8354   87.8511   10.8100 C.ar    1  UNL1        0.0296
     36 C          62.9311   88.7862   11.2286 C.ar    1  UNL1        0.0020
@<TRIPOS>BOND
     1     9    10    2
     2    10    11    2
     3    10    12    1
     4    12    14    1
     5    14    15   ar
     6    15    16   ar
     7    16    17   ar
     8    17    18    1
     9    17    19   ar
    10    10     1    1
    11     1     2   ar
    12     2     3   ar
    13     3     4    1
    14     3     5   ar
    15     5    20    1
    16    20    22    1
    17    23    22    1
    18    23    24    1
    19    24    25    1
    20    25    26    1
    21    26    27    1
    22    27    28    2
    23    28    30    1
    24    30    31   ar
    25    31    32   ar
    26    32    33   ar
    27    33    34    1
    28    33    35   ar
    29    35    36   ar
    30     5     6   ar
    31     6     7   ar
    32     7     8    1
    33    19    14   ar
    34     7     1   ar
    35    28    23    1
    36    36    30   ar
    37    12    13    1
    38    20    21    1
    39    24    29    1
@<TRIPOS>MOLECULE
*****
 36 39 0 0 0
SMALL
GASTEIGER

@<TRIPOS>ATOM
      1 C          63.7117   86.0859   13.7746 C.ar    1  UNL1        0.1534
      2 C          63.1018   86.4539   12.4546 C.ar    1  UNL1        0.0351
      3 C          62.9516   87.8971   12.0742 C.ar    1  UNL1        0.0722
      4 CL         62.3417   88.2652   10.7541 Cl      1  UNL1       -0.0809
      5 C          63.4113   88.9722   13.0138 C.ar    1  UNL1        0.0577
      6 C          64.0211   88.6041   14.3339 C.ar    1  UNL1        0.0462
      7 C          64.1713   87.1610   14.7143 C.ar    1  UNL1        0.1602
      8 F          64.7812   86.7928   16.0344 F       1  UNL1       -0.2027
      9 O          62.3820   84.5481   14.3803 O.2     1  UNL1       -0.1498
     10 S          63.8619   84.6427   14.1551 S.O2    1  UNL1        0.0772
     11 O          65.3418   84.7373   13.9299 O.2     1  UNL1       -0.1498
     12 N          64.0121   83.1996   14.5356 N.pl3   1  UNL1       -0.1936
     13 H          64.4392   82.9573   15.3889 H       1  UNL1        0.1758
     14 C          63.5115   82.1254   13.6159 C.ar    1  UNL1        0.1807
     15 N          62.8060   80.8682   14.0302 N.ar    1  UNL1       -0.2190
     16 C          62.4870   80.0858   12.7909 C.ar    1  UNL1        0.1372
     17 C          62.9953   80.8595   11.6105 C.ar    1  UNL1        0.1915
     18 F          62.8891   80.4453   10.1728 F       1  UNL1       -0.1953
     19 S          63.6285   82.1201   12.1205 S.2     1  UNL1       -0.0209
     20 N          63.2610   90.4154   12.6334 N.pl3   1  UNL1       -0.3306
     21 H          62.3639   90.8136   12.5575 H       1  UNL1        0.1469
     22 C          64.4777   91.2517   12.3685 C.3     1  UNL1        0.1075
     23 C          65.2372   91.8544   13.5131 C.3     1  UNL1        0.0963
     24 N          64.7930   91.6024   14.9235 N.3     1  UNL1       -0.2935
     25 C          65.5525   92.2050   16.0680 C.3     1  UNL1        0.0735
     26 C          66.7562   93.0597   15.8021 C.3     1  UNL1        0.0428
     27 C          67.2004   93.3117   14.3918 C.2     1  UNL1       -0.0276
     28 C          66.4409   92.7091   13.2473 C.2     1  UNL1       -0.0106
     29 H          64.8070   90.5917   15.0605 H       1  UNL1        0.1236
     30 C          66.8850   92.9611   11.8368 C.ar    1  UNL1       -0.0028
     31 C          67.8239   92.0041   11.1639 C.ar    1  UNL1        0.0020
     32 C          68.2681   92.2561    9.7535 C.ar    1  UNL1        0.0296
     33 C          67.7734   93.4650    9.0160 C.ar    1  UNL1        0.1401
     34 F          68.2175   93.7170    7.6056 F       1  UNL1       -0.2042
     35 C          66.8345   94.4220    9.6889 C.ar    1  UNL1        0.0296
     36 C          66.3904   94.1699   11.0994 C.ar    1  UNL1        0.0020
@<TRIPOS>BOND
     1     9    10    2
     2    10    11    2
     3    10    12    1
     4    12    14    1
     5    14    15   ar
     6    15    16   ar
     7    16    17   ar
     8    17    18    1
     9    17    19   ar
    10    10     1    1
    11     1     2   ar
    12     2     3   ar
    13     3     4    1
    14     3     5   ar
    15     5    20    1
    16    20    22    1
    17    23    22    1
    18    23    24    1
    19    24    25    1
    20    25    26    1
    21    26    27    1
    22    27    28    2
    23    28    30    1
    24    30    31   ar
    25    31    32   ar
    26    32    33   ar
    27    33    34    1
    28    33    35   ar
    29    35    36   ar
    30     5     6   ar
    31     6     7   ar
    32     7     8    1
    33    19    14   ar
    34     7     1   ar
    35    28    23    1
    36    36    30   ar
    37    12    13    1
    38    20    21    1
    39    24    29    1
@<TRIPOS>MOLECULE
*****
 36 39 0 0 0
SMALL
GASTEIGER

@<TRIPOS>ATOM
      1 C          63.2649   84.9171   15.1828 C.ar    1  UNL1        0.1534
      2 C          62.9526   85.7376   16.3990 C.ar    1  UNL1        0.0351
      3 C          63.3553   87.1814   16.4533 C.ar    1  UNL1        0.0722
      4 CL         63.0430   88.0020   17.6696 Cl      1  UNL1       -0.0809
      5 C          64.0704   87.8049   15.2914 C.ar    1  UNL1        0.0577
      6 C          64.3827   86.9844   14.0752 C.ar    1  UNL1        0.0462
      7 C          63.9800   85.5405   14.0209 C.ar    1  UNL1        0.1602
      8 F          64.2923   84.7200   12.8046 F       1  UNL1       -0.2027
      9 O          61.4613   83.8772   14.7762 O.2     1  UNL1       -0.1498
     10 S          62.8622   83.4731   15.1284 S.O2    1  UNL1        0.0772
     11 O          64.2632   83.0691   15.4807 O.2     1  UNL1       -0.1498
     12 N          62.4595   82.0293   15.0741 N.pl3   1  UNL1       -0.1936
     13 H          62.1258   81.5805   15.8843 H       1  UNL1        0.1758
     14 C          62.5651   81.2692   13.7852 C.ar    1  UNL1        0.1807
     15 N          62.3811   79.7901   13.6162 N.ar    1  UNL1       -0.2190
     16 C          62.5756   79.4616   12.1656 C.ar    1  UNL1        0.1372
     17 C          62.8798   80.7376   11.4380 C.ar    1  UNL1        0.1915
     18 F          63.1441   80.8727    9.9677 F       1  UNL1       -0.1953
     19 S          62.8733   81.8548   12.4391 S.2     1  UNL1       -0.0209
     20 N          64.4731   89.2488   15.3458 N.pl3   1  UNL1       -0.3306
     21 H          65.3554   89.5007   15.7026 H       1  UNL1        0.1469
     22 C          63.5315   90.3090   14.8565 C.3     1  UNL1        0.1075
     23 C          63.5594   90.7307   13.4172 C.3     1  UNL1        0.0963
     24 N          62.4270   90.3617   12.5054 N.3     1  UNL1       -0.2935
     25 C          62.4549   90.7835   11.0663 C.3     1  UNL1        0.0735
     26 C          63.6154   91.5741   10.5388 C.3     1  UNL1        0.0428
     27 C          64.7479   91.9431   11.4505 C.2     1  UNL1       -0.0276
     28 C          64.7199   91.5213   12.8897 C.2     1  UNL1       -0.0106
     29 H          61.5801   90.7589   12.9122 H       1  UNL1        0.1236
     30 C          65.8524   91.8903   13.8016 C.ar    1  UNL1       -0.0028
     31 C          67.2704   91.7272   13.3402 C.ar    1  UNL1        0.0020
     32 C          68.4028   92.0961   14.2519 C.ar    1  UNL1        0.0296
     33 C          68.1174   92.6281   15.6251 C.ar    1  UNL1        0.1401
     34 F          69.2499   92.9970   16.5369 F       1  UNL1       -0.2042
     35 C          66.6995   92.7911   16.0865 C.ar    1  UNL1        0.0296
     36 C          65.5670   92.4222   15.1747 C.ar    1  UNL1        0.0020
@<TRIPOS>BOND
     1     9    10    2
     2    10    11    2
     3    10    12    1
     4    12    14    1
     5    14    15   ar
     6    15    16   ar
     7    16    17   ar
     8    17    18    1
     9    17    19   ar
    10    10     1    1
    11     1     2   ar
    12     2     3   ar
    13     3     4    1
    14     3     5   ar
    15     5    20    1
    16    20    22    1
    17    23    22    1
    18    23    24    1
    19    24    25    1
    20    25    26    1
    21    26    27    1
    22    27    28    2
    23    28    30    1
    24    30    31   ar
    25    31    32   ar
    26    32    33   ar
    27    33    34    1
    28    33    35   ar
    29    35    36   ar
    30     5     6   ar
    31     6     7   ar
    32     7     8    1
    33    19    14   ar
    34     7     1   ar
    35    28    23    1
    36    36    30   ar
    37    12    13    1
    38    20    21    1
    39    24    29    1
@<TRIPOS>MOLECULE
*****
 36 39 0 0 0
SMALL
GASTEIGER

@<TRIPOS>ATOM
      1 C          63.2195   84.8141   15.3551 C.ar    1  UNL1        0.1534
      2 C          62.8170   85.4462   16.6545 C.ar    1  UNL1        0.0351
      3 C          63.0607   86.9083   16.8844 C.ar    1  UNL1        0.0722
      4 CL         62.6582   87.5405   18.1838 Cl      1  UNL1       -0.0809
      5 C          63.7068   87.7382   15.8149 C.ar    1  UNL1        0.0577
      6 C          64.1092   87.1061   14.5155 C.ar    1  UNL1        0.0462
      7 C          63.8656   85.6440   14.2856 C.ar    1  UNL1        0.1602
      8 F          64.2680   85.0118   12.9862 F       1  UNL1       -0.2027
      9 O          61.5460   83.6447   14.7789 O.2     1  UNL1       -0.1498
     10 S          62.9758   83.3519   15.1251 S.O2    1  UNL1        0.0772
     11 O          64.4057   83.0592   15.4713 O.2     1  UNL1       -0.1498
     12 N          62.7322   81.8898   14.8952 N.pl3   1  UNL1       -0.1936
     13 H          62.5226   81.3002   15.6552 H       1  UNL1        0.1758
     14 C          62.8078   81.3261   13.5072 C.ar    1  UNL1        0.1807
     15 N          63.1610   82.0878   12.2642 N.ar    1  UNL1       -0.2190
     16 C          63.1150   81.1341   11.1073 C.ar    1  UNL1        0.1372
     17 C          62.7335   79.7829   11.6353 C.ar    1  UNL1        0.1915
     18 F          62.5705   78.5326   10.8228 F       1  UNL1       -0.1953
     19 S          62.5437   79.9015   13.1186 S.2     1  UNL1       -0.0209
     20 N          63.9504   89.2004   16.0449 N.pl3   1  UNL1       -0.3306
     21 H          64.3898   89.5020   16.8726 H       1  UNL1        0.1469
     22 C          63.5245   90.2030   15.0137 C.3     1  UNL1        0.1075
     23 C          64.4934   91.2424   14.5330 C.3     1  UNL1        0.0963
     24 N          65.3406   91.9909   15.5189 N.3     1  UNL1       -0.2935
     25 C          66.3094   93.0302   15.0382 C.3     1  UNL1        0.0735
     26 C          66.4312   93.3210   13.5717 C.3     1  UNL1        0.0428
     27 C          65.5840   92.5724   12.5858 C.2     1  UNL1       -0.0276
     28 C          64.6152   91.5331   13.0665 C.2     1  UNL1       -0.0106
     29 H          65.8845   91.2945   16.0283 H       1  UNL1        0.1236
     30 C          63.7680   90.7844   12.0806 C.ar    1  UNL1       -0.0028
     31 C          63.3185   89.3866   12.3873 C.ar    1  UNL1        0.0020
     32 C          62.4713   88.6380   11.4015 C.ar    1  UNL1        0.0296
     33 C          62.0736   89.2871   10.1090 C.ar    1  UNL1        0.1401
     34 F          61.2265   88.5385    9.1232 F       1  UNL1       -0.2042
     35 C          62.5231   90.6850    9.8023 C.ar    1  UNL1        0.0296
     36 C          63.3703   91.4336   10.7882 C.ar    1  UNL1        0.0020
@<TRIPOS>BOND
     1     9    10    2
     2    10    11    2
     3    10    12    1
     4    12    14    1
     5    14    15   ar
     6    15    16   ar
     7    16    17   ar
     8    17    18    1
     9    17    19   ar
    10    10     1    1
    11     1     2   ar
    12     2     3   ar
    13     3     4    1
    14     3     5   ar
    15     5    20    1
    16    20    22    1
    17    23    22    1
    18    23    24    1
    19    24    25    1
    20    25    26    1
    21    26    27    1
    22    27    28    2
    23    28    30    1
    24    30    31   ar
    25    31    32   ar
    26    32    33   ar
    27    33    34    1
    28    33    35   ar
    29    35    36   ar
    30     5     6   ar
    31     6     7   ar
    32     7     8    1
    33    19    14   ar
    34     7     1   ar
    35    28    23    1
    36    36    30   ar
    37    12    13    1
    38    20    21    1
    39    24    29    1
@<TRIPOS>MOLECULE
*****
 36 39 0 0 0
SMALL
GASTEIGER

@<TRIPOS>ATOM
      1 C          62.5172   86.6598   11.5634 C.ar    1  UNL1        0.1534
      2 C          61.7873   87.6324   10.6852 C.ar    1  UNL1        0.0351
      3 C          61.9016   89.1059   10.9413 C.ar    1  UNL1        0.0722
      4 CL         61.1716   90.0786   10.0631 Cl      1  UNL1       -0.0809
      5 C          62.7458   89.6069   12.0754 C.ar    1  UNL1        0.0577
      6 C          63.4758   88.6343   12.9535 C.ar    1  UNL1        0.0462
      7 C          63.3615   87.1607   12.6975 C.ar    1  UNL1        0.1602
      8 F          64.0915   86.1880   13.5757 F       1  UNL1       -0.2027
      9 O          62.8068   85.4030    9.8792 O.2     1  UNL1       -0.1498
     10 S          62.4029   85.1862   11.3074 S.O2    1  UNL1        0.0772
     11 O          61.9990   84.9694   12.7356 O.2     1  UNL1       -0.1498
     12 N          62.2887   83.7127   11.0513 N.pl3   1  UNL1       -0.1936
     13 H          61.8249   83.3875   10.2461 H       1  UNL1        0.1758
     14 C          62.8810   82.7345   12.0222 C.ar    1  UNL1        0.1807
     15 N          64.2518   82.8122   12.6264 N.ar    1  UNL1       -0.2190
     16 C          64.4245   81.6327   13.5368 C.ar    1  UNL1        0.1372
     17 C          63.1605   80.8261   13.4954 C.ar    1  UNL1        0.1915
     18 F          62.8967   79.5607   14.2564 F       1  UNL1       -0.1953
     19 S          62.2065   81.5071   12.5592 S.2     1  UNL1       -0.0209
     20 N          62.8601   91.0805   12.3314 N.pl3   1  UNL1       -0.3306
     21 H          62.0743   91.5897   12.6355 H       1  UNL1        0.1469
     22 C          64.1716   91.7782   12.1240 C.3     1  UNL1        0.1075
     23 C          65.0338   92.1205   13.3029 C.3     1  UNL1        0.0963
     24 N          64.6218   91.6967   14.6815 N.3     1  UNL1       -0.2935
     25 C          65.4840   92.0390   15.8603 C.3     1  UNL1        0.0735
     26 C          66.7580   92.8051   15.6604 C.3     1  UNL1        0.0428
     27 C          67.1699   93.2289   14.2818 C.2     1  UNL1       -0.0276
     28 C          66.3078   92.8866   13.1030 C.2     1  UNL1       -0.0106
     29 H          64.5368   90.6804   14.6641 H       1  UNL1        0.1236
     30 C          66.7197   93.3104   11.7243 C.ar    1  UNL1       -0.0028
     31 C          66.2990   94.6490   11.1941 C.ar    1  UNL1        0.0020
     32 C          66.7109   95.0728    9.8154 C.ar    1  UNL1        0.0296
     33 C          67.5435   94.1580    8.9669 C.ar    1  UNL1        0.1401
     34 F          67.9554   94.5818    7.5883 F       1  UNL1       -0.2042
     35 C          67.9642   92.8193    9.4971 C.ar    1  UNL1        0.0296
     36 C          67.5523   92.3955   10.8758 C.ar    1  UNL1        0.0020
@<TRIPOS>BOND
     1     9    10    2
     2    10    11    2
     3    10    12    1
     4    12    14    1
     5    14    15   ar
     6    15    16   ar
     7    16    17   ar
     8    17    18    1
     9    17    19   ar
    10    10     1    1
    11     1     2   ar
    12     2     3   ar
    13     3     4    1
    14     3     5   ar
    15     5    20    1
    16    20    22    1
    17    23    22    1
    18    23    24    1
    19    24    25    1
    20    25    26    1
    21    26    27    1
    22    27    28    2
    23    28    30    1
    24    30    31   ar
    25    31    32   ar
    26    32    33   ar
    27    33    34    1
    28    33    35   ar
    29    35    36   ar
    30     5     6   ar
    31     6     7   ar
    32     7     8    1
    33    19    14   ar
    34     7     1   ar
    35    28    23    1
    36    36    30   ar
    37    12    13    1
    38    20    21    1
    39    24    29    1
@<TRIPOS>MOLECULE
*****
 36 39 0 0 0
SMALL
GASTEIGER

@<TRIPOS>ATOM
      1 C          64.9851   92.0503   12.0242 C.ar    1  UNL1        0.1534
      2 C          65.0153   91.2442   13.2888 C.ar    1  UNL1        0.0351
      3 C          64.0185   90.1436   13.5006 C.ar    1  UNL1        0.0722
      4 CL         64.0487   89.3375   14.7653 Cl      1  UNL1       -0.0809
      5 C          62.9914   89.8491   12.4478 C.ar    1  UNL1        0.0577
      6 C          62.9611   90.6552   11.1832 C.ar    1  UNL1        0.0462
      7 C          63.9580   91.7558   10.9714 C.ar    1  UNL1        0.1602
      8 F          63.9278   92.5619    9.7067 F       1  UNL1       -0.2027
      9 O          65.5889   93.7597   13.1256 O.2     1  UNL1       -0.1498
     10 S          65.9820   93.1509   11.8123 S.O2    1  UNL1        0.0772
     11 O          66.3750   92.5422   10.4989 O.2     1  UNL1       -0.1498
     12 N          66.9788   94.2516   11.6004 N.pl3   1  UNL1       -0.1936
     13 H          67.7295   94.3632   12.2276 H       1  UNL1        0.1758
     14 C          66.8319   95.1821   10.4331 C.ar    1  UNL1        0.1807
     15 N          65.6863   96.1198   10.1917 N.ar    1  UNL1       -0.2190
     16 C          65.9512   96.8555    8.9117 C.ar    1  UNL1        0.1372
     17 C          67.2607   96.3724    8.3619 C.ar    1  UNL1        0.1915
     18 F          67.9115   96.8413    7.0944 F       1  UNL1       -0.1953
     19 S          67.8050   95.3382    9.3022 S.2     1  UNL1       -0.0209
     20 N          61.9945   88.7484   12.6597 N.pl3   1  UNL1       -0.3306
     21 H          61.2338   88.8839   13.2699 H       1  UNL1        0.1469
     22 C          62.1565   87.4413   11.9420 C.3     1  UNL1        0.1075
     23 C          61.4868   87.2250   10.6172 C.3     1  UNL1        0.0963
     24 N          60.6279   88.3033   10.0261 N.3     1  UNL1       -0.2935
     25 C          59.9583   88.0870    8.7015 C.3     1  UNL1        0.0735
     26 C          60.1476   86.7924    7.9679 C.3     1  UNL1        0.0428
     27 C          61.0065   85.7141    8.5590 C.2     1  UNL1       -0.0276
     28 C          61.6761   85.9304    9.8837 C.2     1  UNL1       -0.0106
     29 H          61.2187   89.1287    9.9261 H       1  UNL1        0.1236
     30 C          62.5351   84.8521   10.4749 C.ar    1  UNL1       -0.0028
     31 C          63.5252   84.1254    9.6137 C.ar    1  UNL1        0.0020
     32 C          64.3842   83.0471   10.2048 C.ar    1  UNL1        0.0296
     33 C          64.2531   82.6955   11.6571 C.ar    1  UNL1        0.1401
     34 F          65.1121   81.6172   12.2482 F       1  UNL1       -0.2042
     35 C          63.2630   83.4222   12.5183 C.ar    1  UNL1        0.0296
     36 C          62.4040   84.5005   11.9271 C.ar    1  UNL1        0.0020
@<TRIPOS>BOND
     1     9    10    2
     2    10    11    2
     3    10    12    1
     4    12    14    1
     5    14    15   ar
     6    15    16   ar
     7    16    17   ar
     8    17    18    1
     9    17    19   ar
    10    10     1    1
    11     1     2   ar
    12     2     3   ar
    13     3     4    1
    14     3     5   ar
    15     5    20    1
    16    20    22    1
    17    23    22    1
    18    23    24    1
    19    24    25    1
    20    25    26    1
    21    26    27    1
    22    27    28    2
    23    28    30    1
    24    30    31   ar
    25    31    32   ar
    26    32    33   ar
    27    33    34    1
    28    33    35   ar
    29    35    36   ar
    30     5     6   ar
    31     6     7   ar
    32     7     8    1
    33    19    14   ar
    34     7     1   ar
    35    28    23    1
    36    36    30   ar
    37    12    13    1
    38    20    21    1
    39    24    29    1
@<TRIPOS>MOLECULE
*****
 36 39 0 0 0
SMALL
GASTEIGER

@<TRIPOS>ATOM
      1 C          63.8602   86.6669   14.6760 C.ar    1  UNL1        0.1534
      2 C          63.8291   87.7202   15.7435 C.ar    1  UNL1        0.0351
      3 C          63.6413   89.1608   15.3703 C.ar    1  UNL1        0.0722
      4 CL         63.6102   90.2142   16.4378 Cl      1  UNL1       -0.0809
      5 C          63.4846   89.5482   13.9297 C.ar    1  UNL1        0.0577
      6 C          63.5157   88.4949   12.8622 C.ar    1  UNL1        0.0462
      7 C          63.7035   87.0543   13.2353 C.ar    1  UNL1        0.1602
      8 F          63.7346   86.0009   12.1678 F       1  UNL1       -0.2027
      9 O          62.7466   85.2497   15.7945 O.2     1  UNL1       -0.1498
     10 S          64.0480   85.2262   15.0491 S.O2    1  UNL1        0.0772
     11 O          65.3494   85.2027   14.3036 O.2     1  UNL1       -0.1498
     12 N          64.2358   83.7856   15.4222 N.pl3   1  UNL1       -0.1936
     13 H          64.7975   83.5463   16.1944 H       1  UNL1        0.1758
     14 C          63.5675   82.7095   14.6187 C.ar    1  UNL1        0.1807
     15 N          64.2015   81.9049   13.5229 N.ar    1  UNL1       -0.2190
     16 C          63.1739   80.9472   12.9969 C.ar    1  UNL1        0.1372
     17 C          61.9046   81.1599   13.7676 C.ar    1  UNL1        0.1915
     18 F          60.6180   80.4144   13.5706 F       1  UNL1       -0.1953
     19 S          62.1480   82.2491   14.7700 S.2     1  UNL1       -0.0209
     20 N          63.2968   90.9889   13.5566 N.pl3   1  UNL1       -0.3306
     21 H          62.4055   91.4020   13.6214 H       1  UNL1        0.1469
     22 C          64.4669   91.8002   13.0848 C.3     1  UNL1        0.1075
     23 C          65.4932   92.2787   14.0686 C.3     1  UNL1        0.0963
     24 N          65.3180   91.9979   15.5316 N.3     1  UNL1       -0.2935
     25 C          66.3443   92.4764   16.5153 C.3     1  UNL1        0.0735
     26 C          67.5458   93.2357   16.0360 C.3     1  UNL1        0.0428
     27 C          67.7211   93.5165   14.5730 C.2     1  UNL1       -0.0276
     28 C          66.6948   93.0380   13.5893 C.2     1  UNL1       -0.0106
     29 H          65.2635   90.9843   15.6325 H       1  UNL1        0.1236
     30 C          66.8700   93.3188   12.1262 C.ar    1  UNL1       -0.0028
     31 C          67.5945   92.3355   11.2554 C.ar    1  UNL1        0.0020
     32 C          67.7698   92.6163    9.7924 C.ar    1  UNL1        0.0296
     33 C          67.2205   93.8803    9.2001 C.ar    1  UNL1        0.1401
     34 F          67.3957   94.1610    7.7371 F       1  UNL1       -0.2042
     35 C          66.4960   94.8635   10.0710 C.ar    1  UNL1        0.0296
     36 C          66.3207   94.5827   11.5341 C.ar    1  UNL1        0.0020
@<TRIPOS>BOND
     1     9    10    2
     2    10    11    2
     3    10    12    1
     4    12    14    1
     5    14    15   ar
     6    15    16   ar
     7    16    17   ar
     8    17    18    1
     9    17    19   ar
    10    10     1    1
    11     1     2   ar
    12     2     3   ar
    13     3     4    1
    14     3     5   ar
    15     5    20    1
    16    20    22    1
    17    23    22    1
    18    23    24    1
    19    24    25    1
    20    25    26    1
    21    26    27    1
    22    27    28    2
    23    28    30    1
    24    30    31   ar
    25    31    32   ar
    26    32    33   ar
    27    33    34    1
    28    33    35   ar
    29    35    36   ar
    30     5     6   ar
    31     6     7   ar
    32     7     8    1
    33    19    14   ar
    34     7     1   ar
    35    28    23    1
    36    36    30   ar
    37    12    13    1
    38    20    21    1
    39    24    29    1
@<TRIPOS>MOLECULE
*****
 36 39 0 0 0
SMALL
GASTEIGER

@<TRIPOS>ATOM
      1 C          63.8850   89.1330   15.5859 C.ar    1  UNL1        0.1534
      2 C          63.4030   88.3222   16.7522 C.ar    1  UNL1        0.0351
      3 C          63.2196   86.8403   16.6107 C.ar    1  UNL1        0.0722
      4 CL         62.7375   86.0294   17.7770 Cl      1  UNL1       -0.0809
      5 C          63.5181   86.1691   15.3029 C.ar    1  UNL1        0.0577
      6 C          64.0001   86.9798   14.1366 C.ar    1  UNL1        0.0462
      7 C          64.1836   88.4618   14.2781 C.ar    1  UNL1        0.1602
      8 F          64.6656   89.2727   13.1118 F       1  UNL1       -0.2027
      9 O          63.0189   90.6427   16.7986 O.2     1  UNL1       -0.1498
     10 S          64.0684   90.6151   15.7274 S.O2    1  UNL1        0.0772
     11 O          65.1179   90.5875   14.6561 O.2     1  UNL1       -0.1498
     12 N          64.2518   92.0970   15.8689 N.pl3   1  UNL1       -0.1936
     13 H          63.5110   92.6555   16.1983 H       1  UNL1        0.1758
     14 C          65.5640   92.7282   15.5084 C.ar    1  UNL1        0.1807
     15 N          65.8471   93.5290   14.2721 N.ar    1  UNL1       -0.2190
     16 C          67.2815   93.9651   14.3206 C.ar    1  UNL1        0.1372
     17 C          67.8849   93.4338   15.5870 C.ar    1  UNL1        0.1915
     18 F          69.3011   93.6321   16.0398 F       1  UNL1       -0.1953
     19 S          66.8234   92.6693   16.3212 S.2     1  UNL1       -0.0209
     20 N          63.3347   84.6870   15.1614 N.pl3   1  UNL1       -0.3306
     21 H          62.7164   84.2082   15.7595 H       1  UNL1        0.1469
     22 C          64.0933   83.9345   14.1087 C.3     1  UNL1        0.1075
     23 C          63.5716   82.6226   13.6018 C.3     1  UNL1        0.0963
     24 N          63.7225   81.3836   14.4336 N.3     1  UNL1       -0.2935
     25 C          63.2008   80.0718   13.9266 C.3     1  UNL1        0.0735
     26 C          62.5281   79.9991   12.5879 C.3     1  UNL1        0.0428
     27 C          62.3772   81.2382   11.7561 C.2     1  UNL1       -0.0276
     28 C          62.8989   82.5499   12.2630 C.2     1  UNL1       -0.0106
     29 H          63.2517   81.5649   15.3201 H       1  UNL1        0.1236
     30 C          62.7480   83.7891   11.4312 C.ar    1  UNL1       -0.0028
     31 C          61.9892   84.9658   11.9693 C.ar    1  UNL1        0.0020
     32 C          61.8383   86.2049   11.1376 C.ar    1  UNL1        0.0296
     33 C          62.4461   86.2673    9.7677 C.ar    1  UNL1        0.1401
     34 F          62.2952   87.5064    8.9359 F       1  UNL1       -0.2042
     35 C          63.2049   85.0906    9.2295 C.ar    1  UNL1        0.0296
     36 C          63.3558   83.8515   10.0613 C.ar    1  UNL1        0.0020
@<TRIPOS>BOND
     1     9    10    2
     2    10    11    2
     3    10    12    1
     4    12    14    1
     5    14    15   ar
     6    15    16   ar
     7    16    17   ar
     8    17    18    1
     9    17    19   ar
    10    10     1    1
    11     1     2   ar
    12     2     3   ar
    13     3     4    1
    14     3     5   ar
    15     5    20    1
    16    20    22    1
    17    23    22    1
    18    23    24    1
    19    24    25    1
    20    25    26    1
    21    26    27    1
    22    27    28    2
    23    28    30    1
    24    30    31   ar
    25    31    32   ar
    26    32    33   ar
    27    33    34    1
    28    33    35   ar
    29    35    36   ar
    30     5     6   ar
    31     6     7   ar
    32     7     8    1
    33    19    14   ar
    34     7     1   ar
    35    28    23    1
    36    36    30   ar
    37    12    13    1
    38    20    21    1
    39    24    29    1
@<TRIPOS>MOLECULE
*****
 36 39 0 0 0
SMALL
GASTEIGER

@<TRIPOS>ATOM
      1 C          63.7757   85.7485   14.8036 C.ar    1  UNL1        0.1534
      2 C          63.6234   86.3963   13.4593 C.ar    1  UNL1        0.0351
      3 C          63.4193   87.8790   13.3601 C.ar    1  UNL1        0.0722
      4 CL         63.2670   88.5269   12.0158 Cl      1  UNL1       -0.0809
      5 C          63.3676   88.7139   14.6052 C.ar    1  UNL1        0.0577
      6 C          63.5199   88.0661   15.9495 C.ar    1  UNL1        0.0462
      7 C          63.7240   86.5834   16.0487 C.ar    1  UNL1        0.1602
      8 F          63.8763   85.9355   17.3930 F       1  UNL1       -0.2027
      9 O          62.5399   84.0933   15.2866 O.2     1  UNL1       -0.1498
     10 S          63.9797   84.2657   14.9028 S.O2    1  UNL1        0.0772
     11 O          65.4195   84.4381   14.5191 O.2     1  UNL1       -0.1498
     12 N          64.1837   82.7830   15.0021 N.pl3   1  UNL1       -0.1936
     13 H          64.6844   82.4047   15.7607 H       1  UNL1        0.1758
     14 C          63.6248   81.8766   13.9455 C.ar    1  UNL1        0.1807
     15 N          62.8132   80.6382   14.1855 N.ar    1  UNL1       -0.2190
     16 C          62.4662   80.0458   12.8518 C.ar    1  UNL1        0.1372
     17 C          63.0634   80.9181   11.7876 C.ar    1  UNL1        0.1915
     18 F          62.9622   80.6976   10.3073 F       1  UNL1       -0.1953
     19 S          63.7794   82.0497   12.4636 S.2     1  UNL1       -0.0209
     20 N          63.1636   90.1967   14.5060 N.pl3   1  UNL1       -0.3306
     21 H          62.2606   90.5769   14.6023 H       1  UNL1        0.1469
     22 C          64.3354   91.1002   14.2599 C.3     1  UNL1        0.1075
     23 C          64.5953   91.6331   12.8821 C.3     1  UNL1        0.0963
     24 N          63.5656   91.4614   11.8049 N.3     1  UNL1       -0.2935
     25 C          63.8255   91.9943   10.4271 C.3     1  UNL1        0.0735
     26 C          65.1151   92.6990   10.1264 C.3     1  UNL1        0.0428
     27 C          66.1448   92.8706   11.2035 C.2     1  UNL1       -0.0276
     28 C          65.8849   92.3377   12.5813 C.2     1  UNL1       -0.0106
     29 H          62.7128   91.9109   12.1385 H       1  UNL1        0.1236
     30 C          66.9146   92.5094   13.6585 C.ar    1  UNL1       -0.0028
     31 C          66.6046   93.3431   14.8664 C.ar    1  UNL1        0.0020
     32 C          67.6342   93.5148   15.9436 C.ar    1  UNL1        0.0296
     33 C          68.9740   92.8528   15.8129 C.ar    1  UNL1        0.1401
     34 F          70.0036   93.0245   16.8901 F       1  UNL1       -0.2042
     35 C          69.2840   92.0191   14.6050 C.ar    1  UNL1        0.0296
     36 C          68.2543   91.8475   13.5278 C.ar    1  UNL1        0.0020
@<TRIPOS>BOND
     1     9    10    2
     2    10    11    2
     3    10    12    1
     4    12    14    1
     5    14    15   ar
     6    15    16   ar
     7    16    17   ar
     8    17    18    1
     9    17    19   ar
    10    10     1    1
    11     1     2   ar
    12     2     3   ar
    13     3     4    1
    14     3     5   ar
    15     5    20    1
    16    20    22    1
    17    23    22    1
    18    23    24    1
    19    24    25    1
    20    25    26    1
    21    26    27    1
    22    27    28    2
    23    28    30    1
    24    30    31   ar
    25    31    32   ar
    26    32    33   ar
    27    33    34    1
    28    33    35   ar
    29    35    36   ar
    30     5     6   ar
    31     6     7   ar
    32     7     8    1
    33    19    14   ar
    34     7     1   ar
    35    28    23    1
    36    36    30   ar
    37    12    13    1
    38    20    21    1
    39    24    29    1
