@<TRIPOS>MOLECULE
*****
 41 44 0 0 0
SMALL
GASTEIGER

@<TRIPOS>ATOM
      1 C          62.6101   84.8368    9.8050 C.ar    1  UNL1        0.0611
      2 C          61.7002   84.5473    8.6482 C.ar    1  UNL1        0.1037
      3 N          60.9330   85.7983    8.3377 N.ar    1  UNL1       -0.2269
      4 C          61.3687   86.8609    9.3026 C.ar    1  UNL1        0.1407
      5 N          60.9556   88.2928    9.4726 N.ar    1  UNL1       -0.3374
      6 C          61.5790   89.1304   10.5495 C.ar    1  UNL1        0.0735
      7 C          62.6156   88.5361   11.4564 C.ar    1  UNL1        0.0186
      8 C          63.0287   87.1042   11.2863 C.ar    1  UNL1        0.0047
      9 C          62.4053   86.2666   10.2095 C.ar    1  UNL1        0.0386
     10 H          60.2753   88.6829    8.8774 H       1  UNL1        0.1674
     11 C          63.2390   89.3738   12.5333 C.ar    1  UNL1        0.0208
     12 C          63.9193   88.7151   13.6965 C.ar    1  UNL1        0.0064
     13 C          64.5427   89.5528   14.7735 C.ar    1  UNL1        0.0577
     14 C          64.4858   91.0492   14.6871 C.ar    1  UNL1        0.2249
     15 N          63.8054   91.7079   13.5238 N.ar    1  UNL1       -0.2101
     16 C          63.1820   90.8702   12.4469 C.ar    1  UNL1        0.1021
     17 O          65.1091   91.8869   15.7639 O.3     1  UNL1       -0.4602
     18 C          66.5078   92.4026   15.5977 C.3     1  UNL1        0.2085
     19 C          67.0341   92.7152   14.2283 C.3     1  UNL1        0.0647
     20 C          66.5557   93.9372   13.5018 C.3     1  UNL1        0.0760
     21 N          66.5391   93.9596   12.0021 N.3     1  UNL1       -0.2702
     22 C          66.4107   95.2642   11.2729 C.3     1  UNL1        0.0897
     23 C          66.6509   92.6776   11.2315 C.3     1  UNL1        0.0897
     24 C          63.5584   83.8667   10.4450 C.2     1  UNL1        0.2015
     25 O          64.9771   83.7779    9.9663 O.2     1  UNL1       -0.2864
     26 C          62.2971   82.6987   14.0221 C.ar    1  UNL1        0.0920
     27 C          62.1470   81.2226   13.8016 C.ar    1  UNL1        0.0204
     28 C          62.4673   80.6279   12.4624 C.ar    1  UNL1        0.0312
     29 C          62.9378   81.5091   11.3435 C.ar    1  UNL1        0.1454
     30 F          63.2581   80.9144   10.0042 F       1  UNL1       -0.2040
     31 C          63.0879   82.9853   11.5639 C.ar    1  UNL1        0.0951
     32 C          62.7676   83.5800   12.9032 C.ar    1  UNL1        0.1598
     33 F          62.9178   85.0561   13.1236 F       1  UNL1       -0.2026
     34 N          61.9768   83.2934   15.3614 N.pl3   1  UNL1       -0.2166
     35 H          61.2724   82.8942   15.9215 H       1  UNL1        0.1734
     36 S          62.7297   84.4963   15.8473 S.O2    1  UNL1        0.0540
     37 O          64.0197   83.7423   15.7151 O.2     1  UNL1       -0.1545
     38 O          61.4397   85.2503   15.9794 O.2     1  UNL1       -0.1545
     39 C          63.4825   85.6993   16.3331 C.3     1  UNL1        0.1724
     40 C          62.9389   88.0250   17.3558 C.3     1  UNL1        0.0019
     41 C          62.9288   86.5283   17.4540 C.3     1  UNL1        0.0273
@<TRIPOS>BOND
     1    40    41    1
     2    41    39    1
     3    39    36    1
     4    36    37    2
     5    36    38    2
     6    36    34    1
     7    34    26    1
     8    26    27   ar
     9    27    28   ar
    10    28    29   ar
    11    29    30    1
    12    29    31   ar
    13    31    24    1
    14    24    25    2
    15    24     1    1
    16     1     2   ar
    17     2     3   ar
    18     3     4   ar
    19     4     5   ar
    20     5     6   ar
    21     6     7   ar
    22     7    11    1
    23    11    12   ar
    24    12    13   ar
    25    13    14   ar
    26    14    17    1
    27    17    18    1
    28    18    19    1
    29    19    20    1
    30    20    21    1
    31    21    22    1
    32    21    23    1
    33    14    15   ar
    34    15    16   ar
    35     7     8   ar
    36     8     9   ar
    37    31    32   ar
    38    32    33    1
    39    32    26   ar
    40     9     1   ar
    41     9     4    1
    42    16    11   ar
    43    34    35    1
    44     5    10    1
@<TRIPOS>MOLECULE
*****
 41 44 0 0 0
SMALL
GASTEIGER

@<TRIPOS>ATOM
      1 C          61.5193   86.1643    8.9978 C.ar    1  UNL1        0.0611
      2 C          60.1715   85.7887    8.4569 C.ar    1  UNL1        0.1037
      3 N          59.2754   86.9859    8.5731 N.ar    1  UNL1       -0.2269
      4 C          60.0692   88.1014    9.1858 C.ar    1  UNL1        0.1407
      5 N          59.7085   89.5140    9.5386 N.ar    1  UNL1       -0.3374
      6 C          60.7345   90.4187   10.1539 C.ar    1  UNL1        0.0735
      7 C          62.1214   89.9109   10.4163 C.ar    1  UNL1        0.0186
      8 C          62.4821   88.4984   10.0635 C.ar    1  UNL1        0.0047
      9 C          61.4561   87.5936    9.4482 C.ar    1  UNL1        0.0386
     10 H          58.7983   89.8473    9.3664 H       1  UNL1        0.1674
     11 C          63.1475   90.8158   11.0316 C.ar    1  UNL1        0.0208
     12 C          63.9747   91.7137   10.1601 C.ar    1  UNL1        0.0064
     13 C          65.0007   92.6185   10.7754 C.ar    1  UNL1        0.0577
     14 C          65.1996   92.6254   12.2622 C.ar    1  UNL1        0.2249
     15 N          64.3723   91.7274   13.1336 N.ar    1  UNL1       -0.2101
     16 C          63.3463   90.8227   12.5183 C.ar    1  UNL1        0.1021
     17 O          66.2256   93.5301   12.8775 O.3     1  UNL1       -0.4602
     18 C          67.6588   93.0948   12.9559 C.3     1  UNL1        0.2085
     19 C          68.0041   91.7496   13.5229 C.3     1  UNL1        0.0647
     20 C          67.6586   91.4243   14.9458 C.3     1  UNL1        0.0760
     21 N          67.2501   92.5183   15.8873 N.3     1  UNL1       -0.2702
     22 C          65.8408   92.5814   16.3974 C.3     1  UNL1        0.0897
     23 C          68.2507   93.5491   16.3186 C.3     1  UNL1        0.0897
     24 C          62.7195   85.2679    9.0747 C.2     1  UNL1        0.2015
     25 O          63.5926   85.0785    7.8698 O.2     1  UNL1       -0.2864
     26 C          62.7074   84.2707   12.9160 C.ar    1  UNL1        0.0920
     27 C          63.7010   83.1470   12.9203 C.ar    1  UNL1        0.0204
     28 C          64.3674   82.7302   11.6427 C.ar    1  UNL1        0.0312
     29 C          64.0403   83.4371   10.3608 C.ar    1  UNL1        0.1454
     30 F          64.7067   83.0204    9.0832 F       1  UNL1       -0.2040
     31 C          63.0467   84.5609   10.3566 C.ar    1  UNL1        0.0951
     32 C          62.3803   84.9776   11.6342 C.ar    1  UNL1        0.1598
     33 F          61.3867   86.1014   11.6298 F       1  UNL1       -0.2026
     34 N          62.0411   84.6875   14.1936 N.pl3   1  UNL1       -0.2166
     35 H          61.0598   84.6597   14.2688 H       1  UNL1        0.1734
     36 S          62.8697   85.1466   15.3566 S.O2    1  UNL1        0.0540
     37 O          62.1869   84.1439   16.2389 O.2     1  UNL1       -0.1545
     38 O          63.5524   86.1493   14.4743 O.2     1  UNL1       -0.1545
     39 C          63.6984   85.6058   16.5195 C.3     1  UNL1        0.1724
     40 C          62.9015   87.9683   17.2500 C.3     1  UNL1        0.0019
     41 C          63.1013   86.5131   17.5541 C.3     1  UNL1        0.0273
@<TRIPOS>BOND
     1    40    41    1
     2    41    39    1
     3    39    36    1
     4    36    37    2
     5    36    38    2
     6    36    34    1
     7    34    26    1
     8    26    27   ar
     9    27    28   ar
    10    28    29   ar
    11    29    30    1
    12    29    31   ar
    13    31    24    1
    14    24    25    2
    15    24     1    1
    16     1     2   ar
    17     2     3   ar
    18     3     4   ar
    19     4     5   ar
    20     5     6   ar
    21     6     7   ar
    22     7    11    1
    23    11    12   ar
    24    12    13   ar
    25    13    14   ar
    26    14    17    1
    27    17    18    1
    28    18    19    1
    29    19    20    1
    30    20    21    1
    31    21    22    1
    32    21    23    1
    33    14    15   ar
    34    15    16   ar
    35     7     8   ar
    36     8     9   ar
    37    31    32   ar
    38    32    33    1
    39    32    26   ar
    40     9     1   ar
    41     9     4    1
    42    16    11   ar
    43    34    35    1
    44     5    10    1
@<TRIPOS>MOLECULE
*****
 41 44 0 0 0
SMALL
GASTEIGER

@<TRIPOS>ATOM
      1 C          64.3303   90.7389   15.0126 C.ar    1  UNL1        0.0611
      2 C          63.9436   91.4899   16.2521 C.ar    1  UNL1        0.1037
      3 N          63.3886   90.5041   17.2370 N.ar    1  UNL1       -0.2269
      4 C          63.4323   89.1439   16.6063 C.ar    1  UNL1        0.1407
      5 N          63.0174   87.7919   17.1062 N.ar    1  UNL1       -0.3374
      6 C          63.1845   86.5851   16.2312 C.ar    1  UNL1        0.0735
      7 C          63.7665   86.7302   14.8564 C.ar    1  UNL1        0.0186
      8 C          64.1815   88.0822   14.3565 C.ar    1  UNL1        0.0047
      9 C          64.0144   89.2890   15.2314 C.ar    1  UNL1        0.0386
     10 H          62.6354   87.6967   18.0085 H       1  UNL1        0.1674
     11 C          63.9336   85.5233   13.9814 C.ar    1  UNL1        0.0208
     12 C          63.1611   85.4128   12.7005 C.ar    1  UNL1        0.0064
     13 C          63.3281   84.2059   11.8255 C.ar    1  UNL1        0.0577
     14 C          64.2678   83.1094   12.2316 C.ar    1  UNL1        0.2249
     15 N          65.0403   83.2199   13.5127 N.ar    1  UNL1       -0.2101
     16 C          64.8732   84.4268   14.3875 C.ar    1  UNL1        0.1021
     17 O          64.4349   81.9026   11.3567 O.3     1  UNL1       -0.4602
     18 C          63.2435   81.0638   11.0005 C.3     1  UNL1        0.2085
     19 C          62.7169   80.0553   11.9781 C.3     1  UNL1        0.0647
     20 C          62.7448   80.3504   13.4485 C.3     1  UNL1        0.0760
     21 N          61.6148   81.1053   14.0834 N.3     1  UNL1       -0.2702
     22 C          60.2406   80.5052   14.1231 C.3     1  UNL1        0.0897
     23 C          61.8589   82.4603   14.6787 C.3     1  UNL1        0.0897
     24 C          64.9281   91.3335   13.7719 C.2     1  UNL1        0.2015
     25 O          66.2829   91.9749   13.8252 O.2     1  UNL1       -0.2864
     26 C          62.0419   90.6347   11.1390 C.ar    1  UNL1        0.0920
     27 C          62.6567   91.1928    9.8897 C.ar    1  UNL1        0.0204
     28 C          64.0286   91.7977    9.9345 C.ar    1  UNL1        0.0312
     29 C          64.7857   91.8446   11.2285 C.ar    1  UNL1        0.1454
     30 F          66.1576   92.4496   11.2733 F       1  UNL1       -0.2040
     31 C          64.1710   91.2866   12.4778 C.ar    1  UNL1        0.0951
     32 C          62.7991   90.6816   12.4330 C.ar    1  UNL1        0.1598
     33 F          62.1844   90.1236   13.6823 F       1  UNL1       -0.2026
     34 N          60.6701   90.0298   11.0942 N.pl3   1  UNL1       -0.2166
     35 H          59.9257   90.4619   11.5722 H       1  UNL1        0.1734
     36 S          60.4324   88.7665   10.3212 S.O2    1  UNL1        0.0540
     37 O          60.9632   87.9629   11.4712 O.2     1  UNL1       -0.1545
     38 O          59.9015   89.5700    9.1712 O.2     1  UNL1       -0.1545
     39 C          60.1946   87.5032    9.5482 C.3     1  UNL1        0.1724
     40 C          62.1794   86.0092    8.7872 C.3     1  UNL1        0.0019
     41 C          61.0824   86.3135    9.7639 C.3     1  UNL1        0.0273
@<TRIPOS>BOND
     1    40    41    1
     2    41    39    1
     3    39    36    1
     4    36    37    2
     5    36    38    2
     6    36    34    1
     7    34    26    1
     8    26    27   ar
     9    27    28   ar
    10    28    29   ar
    11    29    30    1
    12    29    31   ar
    13    31    24    1
    14    24    25    2
    15    24     1    1
    16     1     2   ar
    17     2     3   ar
    18     3     4   ar
    19     4     5   ar
    20     5     6   ar
    21     6     7   ar
    22     7    11    1
    23    11    12   ar
    24    12    13   ar
    25    13    14   ar
    26    14    17    1
    27    17    18    1
    28    18    19    1
    29    19    20    1
    30    20    21    1
    31    21    22    1
    32    21    23    1
    33    14    15   ar
    34    15    16   ar
    35     7     8   ar
    36     8     9   ar
    37    31    32   ar
    38    32    33    1
    39    32    26   ar
    40     9     1   ar
    41     9     4    1
    42    16    11   ar
    43    34    35    1
    44     5    10    1
@<TRIPOS>MOLECULE
*****
 41 44 0 0 0
SMALL
GASTEIGER

@<TRIPOS>ATOM
      1 C          64.4609   90.8300   14.9960 C.ar    1  UNL1        0.0611
      2 C          64.0912   91.8992   15.9809 C.ar    1  UNL1        0.1037
      3 N          63.4376   91.2387   17.1584 N.ar    1  UNL1       -0.2269
      4 C          63.4033   89.7613   16.9012 C.ar    1  UNL1        0.1407
      5 N          62.8778   88.6135   17.7113 N.ar    1  UNL1       -0.3374
      6 C          62.9849   87.2130   17.1849 C.ar    1  UNL1        0.0735
      7 C          63.6173   86.9604   15.8484 C.ar    1  UNL1        0.0186
      8 C          64.1428   88.1083   15.0383 C.ar    1  UNL1        0.0047
      9 C          64.0357   89.5087   15.5647 C.ar    1  UNL1        0.0386
     10 H          62.4627   88.7793   18.5885 H       1  UNL1        0.1674
     11 C          63.7244   85.5598   15.3220 C.ar    1  UNL1        0.0208
     12 C          64.8814   85.1730   14.4493 C.ar    1  UNL1        0.0064
     13 C          64.9884   83.7724   13.9229 C.ar    1  UNL1        0.0577
     14 C          63.9384   82.7587   14.2693 C.ar    1  UNL1        0.2249
     15 N          62.7813   83.1456   15.1421 N.ar    1  UNL1       -0.2101
     16 C          62.6744   84.5462   15.6684 C.ar    1  UNL1        0.1021
     17 O          64.0454   81.3582   13.7430 O.3     1  UNL1       -0.4602
     18 C          63.3861   80.9919   12.4463 C.3     1  UNL1        0.2085
     19 C          62.7031   82.0472   11.6278 C.3     1  UNL1        0.0647
     20 C          63.5101   82.9452   10.7377 C.3     1  UNL1        0.0760
     21 N          63.0485   84.3470   10.4697 N.3     1  UNL1       -0.2702
     22 C          62.5094   85.1863   11.5900 C.3     1  UNL1        0.0897
     23 C          63.1259   84.9096    9.0813 C.3     1  UNL1        0.0897
     24 C          65.1370   91.0444   13.6743 C.2     1  UNL1        0.2015
     25 O          66.6314   91.1532   13.6052 O.2     1  UNL1       -0.2864
     26 C          62.1108   90.6919   11.1311 C.ar    1  UNL1        0.0920
     27 C          62.6820   91.3612    9.9163 C.ar    1  UNL1        0.0204
     28 C          64.0716   91.9248    9.9541 C.ar    1  UNL1        0.0312
     29 C          64.8899   91.8193   11.2067 C.ar    1  UNL1        0.1454
     30 F          66.2795   92.3829   11.2446 F       1  UNL1       -0.2040
     31 C          64.3187   91.1500   12.4215 C.ar    1  UNL1        0.0951
     32 C          62.9291   90.5864   12.3837 C.ar    1  UNL1        0.1598
     33 F          62.3579   89.9171   13.5986 F       1  UNL1       -0.2026
     34 N          60.7212   90.1283   11.0932 N.pl3   1  UNL1       -0.2166
     35 H          59.9736   90.6350   11.4851 H       1  UNL1        0.1734
     36 S          60.4707   88.7926   10.4582 S.O2    1  UNL1        0.0540
     37 O          60.5481   88.1376   11.8055 O.2     1  UNL1       -0.1545
     38 O          60.3934   89.4476    9.1110 O.2     1  UNL1       -0.1545
     39 C          60.2203   87.4570    9.8232 C.3     1  UNL1        0.1724
     40 C          59.0148   86.6410    7.6711 C.3     1  UNL1        0.0019
     41 C          60.1709   87.3344    8.3290 C.3     1  UNL1        0.0273
@<TRIPOS>BOND
     1    40    41    1
     2    41    39    1
     3    39    36    1
     4    36    37    2
     5    36    38    2
     6    36    34    1
     7    34    26    1
     8    26    27   ar
     9    27    28   ar
    10    28    29   ar
    11    29    30    1
    12    29    31   ar
    13    31    24    1
    14    24    25    2
    15    24     1    1
    16     1     2   ar
    17     2     3   ar
    18     3     4   ar
    19     4     5   ar
    20     5     6   ar
    21     6     7   ar
    22     7    11    1
    23    11    12   ar
    24    12    13   ar
    25    13    14   ar
    26    14    17    1
    27    17    18    1
    28    18    19    1
    29    19    20    1
    30    20    21    1
    31    21    22    1
    32    21    23    1
    33    14    15   ar
    34    15    16   ar
    35     7     8   ar
    36     8     9   ar
    37    31    32   ar
    38    32    33    1
    39    32    26   ar
    40     9     1   ar
    41     9     4    1
    42    16    11   ar
    43    34    35    1
    44     5    10    1
@<TRIPOS>MOLECULE
*****
 41 44 0 0 0
SMALL
GASTEIGER

@<TRIPOS>ATOM
      1 C          63.8667   89.9593   14.9619 C.ar    1  UNL1        0.0611
      2 C          63.6291   90.9808   16.0343 C.ar    1  UNL1        0.1037
      3 N          63.2230   90.2559   17.2832 N.ar    1  UNL1       -0.2269
      4 C          63.2095   88.7864   16.9826 C.ar    1  UNL1        0.1407
      5 N          62.8864   87.5915   17.8298 N.ar    1  UNL1       -0.3374
      6 C          62.9611   86.2134   17.2424 C.ar    1  UNL1        0.0735
      7 C          63.3589   86.0301   15.8078 C.ar    1  UNL1        0.0186
      8 C          63.6820   87.2249   14.9605 C.ar    1  UNL1        0.0047
      9 C          63.6073   88.6031   15.5479 C.ar    1  UNL1        0.0386
     10 H          62.6253   87.7118   18.7714 H       1  UNL1        0.1674
     11 C          63.4336   84.6518   15.2204 C.ar    1  UNL1        0.0208
     12 C          64.6906   84.1923   14.5431 C.ar    1  UNL1        0.0064
     13 C          64.7653   82.8141   13.9557 C.ar    1  UNL1        0.0577
     14 C          63.5830   81.8954   14.0457 C.ar    1  UNL1        0.2249
     15 N          62.3260   82.3549   14.7231 N.ar    1  UNL1       -0.2101
     16 C          62.2513   83.7331   15.3104 C.ar    1  UNL1        0.1021
     17 O          63.6576   80.5172   13.4584 O.3     1  UNL1       -0.4602
     18 C          62.7908   80.1519   12.2900 C.3     1  UNL1        0.2085
     19 C          62.6144   81.1180   11.1561 C.3     1  UNL1        0.0647
     20 C          63.7058   82.0916   10.8235 C.3     1  UNL1        0.0760
     21 N          63.3668   83.5165   10.4999 N.3     1  UNL1       -0.2702
     22 C          62.6281   84.3572   11.4987 C.3     1  UNL1        0.0897
     23 C          63.7664   84.1007    9.1774 C.3     1  UNL1        0.0897
     24 C          64.2893   90.2440   13.5511 C.2     1  UNL1        0.2015
     25 O          63.8433   89.3428   12.4382 O.2     1  UNL1       -0.2864
     26 C          65.6748   93.5390   11.8266 C.ar    1  UNL1        0.0920
     27 C          66.8955   93.8021   12.6577 C.ar    1  UNL1        0.0204
     28 C          67.2475   92.8792   13.7866 C.ar    1  UNL1        0.0312
     29 C          66.3788   91.6932   14.0844 C.ar    1  UNL1        0.1454
     30 F          66.7308   90.7703   15.2133 F       1  UNL1       -0.2040
     31 C          65.1581   91.4301   13.2533 C.ar    1  UNL1        0.0951
     32 C          64.8061   92.3530   12.1245 C.ar    1  UNL1        0.1598
     33 F          63.5854   92.0898   11.2934 F       1  UNL1       -0.2026
     34 N          65.3228   94.4619   10.6977 N.pl3   1  UNL1       -0.2166
     35 H          64.3936   94.7659   10.5819 H       1  UNL1        0.1734
     36 S          66.3866   94.9217    9.7454 S.O2    1  UNL1        0.0540
     37 O          66.0461   96.3495   10.0544 O.2     1  UNL1       -0.1545
     38 O          66.7271   93.4939    9.4365 O.2     1  UNL1       -0.1545
     39 C          67.4504   95.3814    8.7931 C.3     1  UNL1        0.1724
     40 C          66.2377   96.8549    7.0300 C.3     1  UNL1        0.0019
     41 C          67.3003   96.6902    8.0758 C.3     1  UNL1        0.0273
@<TRIPOS>BOND
     1    40    41    1
     2    41    39    1
     3    39    36    1
     4    36    37    2
     5    36    38    2
     6    36    34    1
     7    34    26    1
     8    26    27   ar
     9    27    28   ar
    10    28    29   ar
    11    29    30    1
    12    29    31   ar
    13    31    24    1
    14    24    25    2
    15    24     1    1
    16     1     2   ar
    17     2     3   ar
    18     3     4   ar
    19     4     5   ar
    20     5     6   ar
    21     6     7   ar
    22     7    11    1
    23    11    12   ar
    24    12    13   ar
    25    13    14   ar
    26    14    17    1
    27    17    18    1
    28    18    19    1
    29    19    20    1
    30    20    21    1
    31    21    22    1
    32    21    23    1
    33    14    15   ar
    34    15    16   ar
    35     7     8   ar
    36     8     9   ar
    37    31    32   ar
    38    32    33    1
    39    32    26   ar
    40     9     1   ar
    41     9     4    1
    42    16    11   ar
    43    34    35    1
    44     5    10    1
@<TRIPOS>MOLECULE
*****
 41 44 0 0 0
SMALL
GASTEIGER

@<TRIPOS>ATOM
      1 C          62.3206   90.0750   11.7692 C.ar    1  UNL1        0.0611
      2 C          61.6435   91.0032   10.8049 C.ar    1  UNL1        0.1037
      3 N          61.0546   90.1757    9.7011 N.ar    1  UNL1       -0.2269
      4 C          61.3677   88.7361    9.9832 C.ar    1  UNL1        0.1407
      5 N          61.0414   87.4739    9.2414 N.ar    1  UNL1       -0.3374
      6 C          61.4976   86.1495    9.7778 C.ar    1  UNL1        0.0735
      7 C          62.2801   86.0873   11.0560 C.ar    1  UNL1        0.0186
      8 C          62.6064   87.3495   11.7979 C.ar    1  UNL1        0.0047
      9 C          62.1502   88.6739   11.2615 C.ar    1  UNL1        0.0386
     10 H          60.5279   87.5147    8.4025 H       1  UNL1        0.1674
     11 C          62.7363   84.7628   11.5924 C.ar    1  UNL1        0.0208
     12 C          63.2060   83.6938   10.6508 C.ar    1  UNL1        0.0064
     13 C          63.6622   82.3693   11.1872 C.ar    1  UNL1        0.0577
     14 C          63.6487   82.1139   12.6652 C.ar    1  UNL1        0.2249
     15 N          63.1790   83.1829   13.6068 N.ar    1  UNL1       -0.2101
     16 C          62.7228   84.5073   13.0704 C.ar    1  UNL1        0.1021
     17 O          64.1049   80.7894   13.2016 O.3     1  UNL1       -0.4602
     18 C          63.1412   79.9061   13.9372 C.3     1  UNL1        0.2085
     19 C          61.7087   79.8301   13.4988 C.3     1  UNL1        0.0647
     20 C          60.6594   80.6189   14.2246 C.3     1  UNL1        0.0760
     21 N          59.2572   80.0944   14.3173 N.3     1  UNL1       -0.2702
     22 C          59.0173   78.6370   14.5793 C.3     1  UNL1        0.0897
     23 C          58.0948   81.0272   14.1479 C.3     1  UNL1        0.0897
     24 C          63.0416   90.4773   13.0216 C.2     1  UNL1        0.2015
     25 O          62.4652   90.1322   14.3626 O.2     1  UNL1       -0.2864
     26 C          66.0755   92.5599   11.5355 C.ar    1  UNL1        0.0920
     27 C          66.9340   92.7198   12.7552 C.ar    1  UNL1        0.0204
     28 C          66.4949   92.1322   14.0636 C.ar    1  UNL1        0.0312
     29 C          65.1975   91.3847   14.1525 C.ar    1  UNL1        0.1454
     30 F          64.7585   90.7971   15.4609 F       1  UNL1       -0.2040
     31 C          64.3391   91.2248   12.9328 C.ar    1  UNL1        0.0951
     32 C          64.7781   91.8124   11.6244 C.ar    1  UNL1        0.1598
     33 F          63.9196   91.6525   10.4047 F       1  UNL1       -0.2026
     34 N          66.5146   93.1475   10.2271 N.pl3   1  UNL1       -0.2166
     35 H          66.6129   92.5695    9.4362 H       1  UNL1        0.1734
     36 S          66.8037   94.6157   10.1237 S.O2    1  UNL1        0.0540
     37 O          65.4005   94.9225   10.5559 O.2     1  UNL1       -0.1545
     38 O          68.2069   94.3090    9.6915 O.2     1  UNL1       -0.1545
     39 C          67.0929   96.0839   10.0202 C.3     1  UNL1        0.1724
     40 C          66.3837   96.1454    7.5215 C.3     1  UNL1        0.0019
     41 C          66.6344   96.8558    8.8186 C.3     1  UNL1        0.0273
@<TRIPOS>BOND
     1    40    41    1
     2    41    39    1
     3    39    36    1
     4    36    37    2
     5    36    38    2
     6    36    34    1
     7    34    26    1
     8    26    27   ar
     9    27    28   ar
    10    28    29   ar
    11    29    30    1
    12    29    31   ar
    13    31    24    1
    14    24    25    2
    15    24     1    1
    16     1     2   ar
    17     2     3   ar
    18     3     4   ar
    19     4     5   ar
    20     5     6   ar
    21     6     7   ar
    22     7    11    1
    23    11    12   ar
    24    12    13   ar
    25    13    14   ar
    26    14    17    1
    27    17    18    1
    28    18    19    1
    29    19    20    1
    30    20    21    1
    31    21    22    1
    32    21    23    1
    33    14    15   ar
    34    15    16   ar
    35     7     8   ar
    36     8     9   ar
    37    31    32   ar
    38    32    33    1
    39    32    26   ar
    40     9     1   ar
    41     9     4    1
    42    16    11   ar
    43    34    35    1
    44     5    10    1
@<TRIPOS>MOLECULE
*****
 41 44 0 0 0
SMALL
GASTEIGER

@<TRIPOS>ATOM
      1 C          60.3366   89.5208    9.6097 C.ar    1  UNL1        0.0611
      2 C          59.6338   90.0172    8.3810 C.ar    1  UNL1        0.1037
      3 N          59.6915   88.9344    7.3447 N.ar    1  UNL1       -0.2269
      4 C          60.4299   87.7687    7.9328 C.ar    1  UNL1        0.1407
      5 N          60.7907   86.4240    7.3745 N.ar    1  UNL1       -0.3374
      6 C          61.5503   85.4418    8.2162 C.ar    1  UNL1        0.0735
      7 C          61.9490   85.8043    9.6160 C.ar    1  UNL1        0.0186
      8 C          61.5882   87.1489   10.1743 C.ar    1  UNL1        0.0047
      9 C          60.8286   88.1311    9.3327 C.ar    1  UNL1        0.0386
     10 H          60.5290   86.1861    6.4558 H       1  UNL1        0.1674
     11 C          62.7086   84.8220   10.4576 C.ar    1  UNL1        0.0208
     12 C          63.5536   83.7695    9.8034 C.ar    1  UNL1        0.0064
     13 C          64.3132   82.7872   10.6450 C.ar    1  UNL1        0.0577
     14 C          64.2277   82.8575   12.1409 C.ar    1  UNL1        0.2249
     15 N          63.3826   83.9101   12.7952 N.ar    1  UNL1       -0.2101
     16 C          62.6231   84.8923   11.9536 C.ar    1  UNL1        0.1021
     17 O          64.9872   81.8753   12.9825 O.3     1  UNL1       -0.4602
     18 C          64.2557   80.7824   13.7037 C.3     1  UNL1        0.2085
     19 C          63.1263   80.0628   13.0277 C.3     1  UNL1        0.0647
     20 C          61.9001   79.6913   13.8075 C.3     1  UNL1        0.0760
     21 N          60.8944   80.7436   14.1699 N.3     1  UNL1       -0.2702
     22 C          59.4350   80.4005   14.2208 C.3     1  UNL1        0.0897
     23 C          61.3481   82.1390   14.4815 C.3     1  UNL1        0.0897
     24 C          60.5159   90.2806   10.8905 C.2     1  UNL1        0.2015
     25 O          59.3178   90.6804   11.6995 O.2     1  UNL1       -0.2864
     26 C          63.6580   90.7703   13.2650 C.ar    1  UNL1        0.0920
     27 C          64.6487   91.3609   12.3060 C.ar    1  UNL1        0.0204
     28 C          64.2618   91.5915   10.8753 C.ar    1  UNL1        0.0312
     29 C          62.8843   91.2314   10.4034 C.ar    1  UNL1        0.1454
     30 F          62.4975   91.4619    8.9726 F       1  UNL1       -0.2040
     31 C          61.8936   90.6408   11.3623 C.ar    1  UNL1        0.0951
     32 C          62.2804   90.4102   12.7931 C.ar    1  UNL1        0.1598
     33 F          61.2896   89.8196   13.7521 F       1  UNL1       -0.2026
     34 N          64.0448   90.5397   14.6958 N.pl3   1  UNL1       -0.2166
     35 H          64.4754   91.2594   15.2114 H       1  UNL1        0.1734
     36 S          63.7756   89.2127   15.3410 S.O2    1  UNL1        0.0540
     37 O          62.9649   89.8937   16.4036 O.2     1  UNL1       -0.1545
     38 O          64.5862   88.5316   14.2785 O.2     1  UNL1       -0.1545
     39 C          63.5064   87.8855   15.9862 C.3     1  UNL1        0.1724
     40 C          62.7239   86.5259   18.0572 C.3     1  UNL1        0.0019
     41 C          62.8030   87.8239   17.3097 C.3     1  UNL1        0.0273
@<TRIPOS>BOND
     1    40    41    1
     2    41    39    1
     3    39    36    1
     4    36    37    2
     5    36    38    2
     6    36    34    1
     7    34    26    1
     8    26    27   ar
     9    27    28   ar
    10    28    29   ar
    11    29    30    1
    12    29    31   ar
    13    31    24    1
    14    24    25    2
    15    24     1    1
    16     1     2   ar
    17     2     3   ar
    18     3     4   ar
    19     4     5   ar
    20     5     6   ar
    21     6     7   ar
    22     7    11    1
    23    11    12   ar
    24    12    13   ar
    25    13    14   ar
    26    14    17    1
    27    17    18    1
    28    18    19    1
    29    19    20    1
    30    20    21    1
    31    21    22    1
    32    21    23    1
    33    14    15   ar
    34    15    16   ar
    35     7     8   ar
    36     8     9   ar
    37    31    32   ar
    38    32    33    1
    39    32    26   ar
    40     9     1   ar
    41     9     4    1
    42    16    11   ar
    43    34    35    1
    44     5    10    1
@<TRIPOS>MOLECULE
*****
 41 44 0 0 0
SMALL
GASTEIGER

@<TRIPOS>ATOM
      1 C          64.5305   84.6158   14.2988 C.ar    1  UNL1        0.0611
      2 C          64.7583   83.1968   14.7284 C.ar    1  UNL1        0.1037
      3 N          63.9739   82.3039   13.8133 N.ar    1  UNL1       -0.2269
      4 C          63.2613   83.1711   12.8182 C.ar    1  UNL1        0.1407
      5 N          62.3436   82.8442   11.6776 N.ar    1  UNL1       -0.3374
      6 C          61.7699   83.9461   10.8371 C.ar    1  UNL1        0.0735
      7 C          62.1139   85.3750   11.1372 C.ar    1  UNL1        0.0186
      8 C          63.0316   85.7019   12.2778 C.ar    1  UNL1        0.0047
      9 C          63.6053   84.5999   13.1183 C.ar    1  UNL1        0.0386
     10 H          62.1178   81.9064   11.4807 H       1  UNL1        0.1674
     11 C          61.5402   86.4770   10.2966 C.ar    1  UNL1        0.0208
     12 C          60.7599   86.1474    9.0587 C.ar    1  UNL1        0.0064
     13 C          60.1861   87.2494    8.2181 C.ar    1  UNL1        0.0577
     14 C          60.3928   88.6810    8.6155 C.ar    1  UNL1        0.2249
     15 N          61.1731   89.0105    9.8535 N.ar    1  UNL1       -0.2101
     16 C          61.7468   87.9086   10.6940 C.ar    1  UNL1        0.1021
     17 O          59.8191   89.7829    7.7750 O.3     1  UNL1       -0.4602
     18 C          59.4631   89.5246    6.3410 C.3     1  UNL1        0.2085
     19 C          58.5819   90.4876    5.6017 C.3     1  UNL1        0.0647
     20 C          59.0938   91.8523    5.2475 C.3     1  UNL1        0.0760
     21 N          60.0707   92.0179    4.1214 N.3     1  UNL1       -0.2702
     22 C          61.4309   91.3918    4.2103 C.3     1  UNL1        0.0897
     23 C          59.6875   92.8096    2.9063 C.3     1  UNL1        0.0897
     24 C          65.1237   85.8365   14.9377 C.2     1  UNL1        0.2015
     25 O          66.6116   86.0255   14.9561 O.2     1  UNL1       -0.2864
     26 C          63.3269   89.3030   15.6481 C.ar    1  UNL1        0.0920
     27 C          62.4395   88.9317   16.7991 C.ar    1  UNL1        0.0204
     28 C          62.4469   87.5287   17.3296 C.ar    1  UNL1        0.0312
     29 C          63.3416   86.4969   16.7092 C.ar    1  UNL1        0.1454
     30 F          63.3490   85.0939   17.2397 F       1  UNL1       -0.2040
     31 C          64.2289   86.8683   15.5582 C.ar    1  UNL1        0.0951
     32 C          64.2216   88.2713   15.0277 C.ar    1  UNL1        0.1598
     33 F          65.1089   88.6425   13.8767 F       1  UNL1       -0.2026
     34 N          63.3195   90.7061   15.1176 N.pl3   1  UNL1       -0.2166
     35 H          62.5348   91.0430   14.6277 H       1  UNL1        0.1734
     36 S          64.5076   91.5958   15.3336 S.O2    1  UNL1        0.0540
     37 O          64.0450   91.8740   16.7330 O.2     1  UNL1       -0.1545
     38 O          64.9703   91.3176   13.9341 O.2     1  UNL1       -0.1545
     39 C          65.6958   92.4855   15.5494 C.3     1  UNL1        0.1724
     40 C          68.2396   92.4091   16.0726 C.3     1  UNL1        0.0019
     41 C          67.0738   91.9876   15.2280 C.3     1  UNL1        0.0273
@<TRIPOS>BOND
     1    40    41    1
     2    41    39    1
     3    39    36    1
     4    36    37    2
     5    36    38    2
     6    36    34    1
     7    34    26    1
     8    26    27   ar
     9    27    28   ar
    10    28    29   ar
    11    29    30    1
    12    29    31   ar
    13    31    24    1
    14    24    25    2
    15    24     1    1
    16     1     2   ar
    17     2     3   ar
    18     3     4   ar
    19     4     5   ar
    20     5     6   ar
    21     6     7   ar
    22     7    11    1
    23    11    12   ar
    24    12    13   ar
    25    13    14   ar
    26    14    17    1
    27    17    18    1
    28    18    19    1
    29    19    20    1
    30    20    21    1
    31    21    22    1
    32    21    23    1
    33    14    15   ar
    34    15    16   ar
    35     7     8   ar
    36     8     9   ar
    37    31    32   ar
    38    32    33    1
    39    32    26   ar
    40     9     1   ar
    41     9     4    1
    42    16    11   ar
    43    34    35    1
    44     5    10    1
@<TRIPOS>MOLECULE
*****
 41 44 0 0 0
SMALL
GASTEIGER

@<TRIPOS>ATOM
      1 C          60.7982   88.7225   10.9355 C.ar    1  UNL1        0.0611
      2 C          60.8969   87.3462   11.5238 C.ar    1  UNL1        0.1037
      3 N          60.6014   86.3554   10.4370 N.ar    1  UNL1       -0.2269
      4 C          60.3201   87.1193    9.1771 C.ar    1  UNL1        0.1407
      5 N          59.9690   86.6718    7.7892 N.ar    1  UNL1       -0.3374
      6 C          59.7395   87.6873    6.7094 C.ar    1  UNL1        0.0735
      7 C          59.8611   89.1503    7.0175 C.ar    1  UNL1        0.0186
      8 C          60.2122   89.5978    8.4054 C.ar    1  UNL1        0.0047
      9 C          60.4417   88.5823    9.4852 C.ar    1  UNL1        0.0386
     10 H          59.8892   85.7117    7.5870 H       1  UNL1        0.1674
     11 C          59.6315   90.1658    5.9376 C.ar    1  UNL1        0.0208
     12 C          58.2394   90.6324    5.6305 C.ar    1  UNL1        0.0064
     13 C          58.0099   91.6479    4.5506 C.ar    1  UNL1        0.0577
     14 C          59.1724   92.1967    3.7778 C.ar    1  UNL1        0.2249
     15 N          60.5646   91.7301    4.0849 N.ar    1  UNL1       -0.2101
     16 C          60.7941   90.7146    5.1648 C.ar    1  UNL1        0.1021
     17 O          58.9429   93.2122    2.6979 O.3     1  UNL1       -0.4602
     18 C          59.9126   93.3284    1.5595 C.3     1  UNL1        0.2085
     19 C          60.8755   94.4775    1.5087 C.3     1  UNL1        0.0647
     20 C          62.1946   94.3205    0.8121 C.3     1  UNL1        0.0760
     21 N          63.4125   93.9242    1.5928 N.3     1  UNL1       -0.2702
     22 C          63.4687   92.5852    2.2666 C.3     1  UNL1        0.0897
     23 C          64.5743   94.8669    1.6999 C.3     1  UNL1        0.0897
     24 C          61.0174   90.0125   11.6688 C.2     1  UNL1        0.2015
     25 O          59.8445   90.7829   12.1985 O.2     1  UNL1       -0.2864
     26 C          64.4724   90.8984   13.4092 C.ar    1  UNL1        0.0920
     27 C          65.1943   91.5716   12.2797 C.ar    1  UNL1        0.0204
     28 C          64.5239   91.7251   10.9467 C.ar    1  UNL1        0.0312
     29 C          63.1317   91.2054   10.7430 C.ar    1  UNL1        0.1454
     30 F          62.4613   91.3590    9.4100 F       1  UNL1       -0.2040
     31 C          62.4098   90.5322   11.8725 C.ar    1  UNL1        0.0951
     32 C          63.0802   90.3787   13.2055 C.ar    1  UNL1        0.1598
     33 F          62.3582   89.7055   14.3349 F       1  UNL1       -0.2026
     34 N          65.1428   90.7449   14.7422 N.pl3   1  UNL1       -0.2166
     35 H          65.0239   89.9163   15.2605 H       1  UNL1        0.1734
     36 S          65.9943   91.8537   15.2856 S.O2    1  UNL1        0.0540
     37 O          64.7789   92.4894   15.8929 O.2     1  UNL1       -0.1545
     38 O          67.2096   91.2181   14.6783 O.2     1  UNL1       -0.1545
     39 C          66.8458   92.9626   15.8290 C.3     1  UNL1        0.1724
     40 C          69.2253   93.9930   15.9925 C.3     1  UNL1        0.0019
     41 C          68.3329   92.7894   15.9222 C.3     1  UNL1        0.0273
@<TRIPOS>BOND
     1    40    41    1
     2    41    39    1
     3    39    36    1
     4    36    37    2
     5    36    38    2
     6    36    34    1
     7    34    26    1
     8    26    27   ar
     9    27    28   ar
    10    28    29   ar
    11    29    30    1
    12    29    31   ar
    13    31    24    1
    14    24    25    2
    15    24     1    1
    16     1     2   ar
    17     2     3   ar
    18     3     4   ar
    19     4     5   ar
    20     5     6   ar
    21     6     7   ar
    22     7    11    1
    23    11    12   ar
    24    12    13   ar
    25    13    14   ar
    26    14    17    1
    27    17    18    1
    28    18    19    1
    29    19    20    1
    30    20    21    1
    31    21    22    1
    32    21    23    1
    33    14    15   ar
    34    15    16   ar
    35     7     8   ar
    36     8     9   ar
    37    31    32   ar
    38    32    33    1
    39    32    26   ar
    40     9     1   ar
    41     9     4    1
    42    16    11   ar
    43    34    35    1
    44     5    10    1
