@<TRIPOS>MOLECULE
*****
 33 35 0 0 0
SMALL
GASTEIGER

@<TRIPOS>ATOM
      1 N          65.0012   92.0842   13.1270 N.am    1  UNL1       -0.2508
      2 C          65.3466   91.6018   14.5047 C.2     1  UNL1        0.2559
      3 O          66.3799   92.3260   15.3158 O.2     1  UNL1       -0.2695
      4 C          64.6587   90.3952   15.0713 C.ar    1  UNL1        0.0877
      5 C          64.9348   89.0366   14.4989 C.ar    1  UNL1        0.0107
      6 C          64.2469   87.8300   15.0655 C.ar    1  UNL1        0.0370
      7 C          63.2828   87.9822   16.2046 C.ar    1  UNL1        0.1367
      8 O          62.5949   86.7756   16.7712 O.3     1  UNL1       -0.5054
      9 C          63.0067   89.3409   16.7770 C.ar    1  UNL1        0.0733
     10 C          63.6946   90.5474   16.2104 C.ar    1  UNL1        0.1410
     11 O          63.4185   91.9061   16.7828 O.3     1  UNL1       -0.5053
     12 H          62.7674   85.9269   16.4136 H       1  UNL1        0.2922
     13 H          62.8163   92.0012   17.4944 H       1  UNL1        0.2922
     14 C          61.9013   89.9117   10.6938 C.ar    1  UNL1        0.0537
     15 C          62.9881   90.6841   10.0066 C.ar    1  UNL1        0.0058
     16 C          64.0214   91.4083   10.8177 C.ar    1  UNL1        0.0151
     17 C          63.9679   91.3600   12.3159 C.ar    1  UNL1        0.0544
     18 C          62.8811   90.5876   13.0031 C.ar    1  UNL1        0.0151
     19 C          61.8478   89.8635   12.1920 C.ar    1  UNL1        0.0058
     20 C          59.9792   86.9930    8.8132 C.3     1  UNL1        0.1152
     21 N          61.0125   87.7171    9.6243 N.am    1  UNL1       -0.2726
     22 C          62.1905   86.9707   10.1770 C.3     1  UNL1        0.1152
     23 C          60.8679   89.1876    9.8827 C.2     1  UNL1        0.2491
     24 O          59.6900   89.9339    9.3300 O.2     1  UNL1       -0.2699
     25 C          65.6892   93.2907   12.5605 C.3     1  UNL1        0.1250
     26 C          66.5360   93.1620   11.3291 C.ar    1  UNL1       -0.0018
     27 C          67.5215   92.0373   11.2107 C.ar    1  UNL1        0.0005
     28 C          68.3683   91.9086    9.9793 C.ar    1  UNL1        0.0363
     29 C          68.2296   92.9047    8.8662 C.ar    1  UNL1        0.1337
     30 O          69.0764   92.7760    7.6348 O.3     1  UNL1       -0.5055
     31 C          67.2441   94.0293    8.9847 C.ar    1  UNL1        0.0363
     32 C          66.3973   94.1580   10.2161 C.ar    1  UNL1        0.0005
     33 H          69.6920   92.0735    7.5609 H       1  UNL1        0.2922
@<TRIPOS>BOND
     1    20    21    1
     2    21    22    1
     3    21    23   am
     4    23    24    2
     5    23    14    1
     6    14    15   ar
     7    15    16   ar
     8    16    17   ar
     9    17     1    1
    10     1    25    1
    11    25    26    1
    12    26    27   ar
    13    27    28   ar
    14    28    29   ar
    15    29    30    1
    16    29    31   ar
    17    31    32   ar
    18     1     2   am
    19     2     3    2
    20     2     4    1
    21     4     5   ar
    22     5     6   ar
    23     6     7   ar
    24     7     8    1
    25     7     9   ar
    26     9    10   ar
    27    10    11    1
    28    17    18   ar
    29    18    19   ar
    30    19    14   ar
    31    32    26   ar
    32    10     4   ar
    33    30    33    1
    34     8    12    1
    35    11    13    1
@<TRIPOS>MOLECULE
*****
 33 35 0 0 0
SMALL
GASTEIGER

@<TRIPOS>ATOM
      1 N          62.7163   86.8074   11.8389 N.am    1  UNL1       -0.2508
      2 C          61.4248   86.9726   11.0941 C.2     1  UNL1        0.2559
      3 O          60.9205   85.8684   10.2130 O.2     1  UNL1       -0.2695
      4 C          60.6374   88.2421   11.2305 C.ar    1  UNL1        0.0877
      5 C          59.6598   88.4010   12.3570 C.ar    1  UNL1        0.0107
      6 C          58.8725   89.6704   12.4934 C.ar    1  UNL1        0.0370
      7 C          59.0628   90.7810   11.5033 C.ar    1  UNL1        0.1367
      8 O          58.2754   92.0505   11.6397 O.3     1  UNL1       -0.5054
      9 C          60.0404   90.6222   10.3768 C.ar    1  UNL1        0.0733
     10 C          60.8277   89.3527   10.2404 C.ar    1  UNL1        0.1410
     11 O          61.8053   89.1938    9.1139 O.3     1  UNL1       -0.5053
     12 H          57.6648   92.1497   12.3434 H       1  UNL1        0.2922
     13 H          61.9242   89.8876    8.4954 H       1  UNL1        0.2922
     14 C          64.2290   90.1201   14.4822 C.ar    1  UNL1        0.0537
     15 C          63.6430   90.4406   13.1392 C.ar    1  UNL1        0.0058
     16 C          63.1387   89.3364   12.2581 C.ar    1  UNL1        0.0151
     17 C          63.2205   87.9116   12.7200 C.ar    1  UNL1        0.0544
     18 C          63.8065   87.5912   14.0630 C.ar    1  UNL1        0.0151
     19 C          64.3108   88.6954   14.9442 C.ar    1  UNL1        0.0058
     20 C          66.6190   92.8771   16.0433 C.3     1  UNL1        0.1152
     21 N          66.1148   91.7728   15.1622 N.am    1  UNL1       -0.2726
     22 C          66.9922   91.2170   14.0799 C.3     1  UNL1        0.1152
     23 C          64.7332   91.2244   15.3634 C.2     1  UNL1        0.2491
     24 O          63.8559   91.7802   16.4456 O.2     1  UNL1       -0.2699
     25 C          63.5035   85.5379   11.7025 C.3     1  UNL1        0.1250
     26 C          63.0759   84.3068   12.4450 C.ar    1  UNL1       -0.0018
     27 C          62.8974   83.0115   11.7096 C.ar    1  UNL1        0.0005
     28 C          62.4698   81.7804   12.4521 C.ar    1  UNL1        0.0363
     29 C          62.2206   81.8444   13.9299 C.ar    1  UNL1        0.1337
     30 O          61.7930   80.6132   14.6724 O.3     1  UNL1       -0.5055
     31 C          62.3991   83.1395   14.6652 C.ar    1  UNL1        0.0363
     32 C          62.8267   84.3707   13.9227 C.ar    1  UNL1        0.0005
     33 H          61.6815   79.8041   14.2131 H       1  UNL1        0.2922
@<TRIPOS>BOND
     1    20    21    1
     2    21    22    1
     3    21    23   am
     4    23    24    2
     5    23    14    1
     6    14    15   ar
     7    15    16   ar
     8    16    17   ar
     9    17     1    1
    10     1    25    1
    11    25    26    1
    12    26    27   ar
    13    27    28   ar
    14    28    29   ar
    15    29    30    1
    16    29    31   ar
    17    31    32   ar
    18     1     2   am
    19     2     3    2
    20     2     4    1
    21     4     5   ar
    22     5     6   ar
    23     6     7   ar
    24     7     8    1
    25     7     9   ar
    26     9    10   ar
    27    10    11    1
    28    17    18   ar
    29    18    19   ar
    30    19    14   ar
    31    32    26   ar
    32    10     4   ar
    33    30    33    1
    34     8    12    1
    35    11    13    1
@<TRIPOS>MOLECULE
*****
 33 35 0 0 0
SMALL
GASTEIGER

@<TRIPOS>ATOM
      1 N          62.1203   88.6660   11.3982 N.am    1  UNL1       -0.2508
      2 C          61.7494   88.7972    9.9508 C.2     1  UNL1        0.2559
      3 O          61.4557   90.1492    9.3714 O.2     1  UNL1       -0.2695
      4 C          61.6723   87.5763    9.0826 C.ar    1  UNL1        0.0877
      5 C          62.8667   86.6799    8.9413 C.ar    1  UNL1        0.0107
      6 C          62.7896   85.4591    8.0732 C.ar    1  UNL1        0.0370
      7 C          61.5181   85.1347    7.3464 C.ar    1  UNL1        0.1367
      8 O          61.4411   83.9139    6.4783 O.3     1  UNL1       -0.5054
      9 C          60.3238   86.0311    7.4877 C.ar    1  UNL1        0.0733
     10 C          60.4009   87.2519    8.3559 C.ar    1  UNL1        0.1410
     11 O          59.2066   88.1484    8.4972 O.3     1  UNL1       -0.5053
     12 H          62.1872   83.3539    6.3900 H       1  UNL1        0.2922
     13 H          58.4123   87.9457    8.0432 H       1  UNL1        0.2922
     14 C          63.0016   84.6099   13.1364 C.ar    1  UNL1        0.0537
     15 C          61.8992   84.7721   12.1323 C.ar    1  UNL1        0.0058
     16 C          61.6054   86.1242   11.5529 C.ar    1  UNL1        0.0151
     17 C          62.4141   87.3140   11.9776 C.ar    1  UNL1        0.0544
     18 C          63.5164   87.1517   12.9818 C.ar    1  UNL1        0.0151
     19 C          63.8102   85.7997   13.5612 C.ar    1  UNL1        0.0058
     20 C          64.1508   80.8222   13.4234 C.3     1  UNL1        0.1152
     21 N          63.8571   82.1742   12.8440 N.am    1  UNL1       -0.2726
     22 C          64.1250   82.4426   11.3927 C.3     1  UNL1        0.1152
     23 C          63.2953   83.2578   13.7158 C.2     1  UNL1        0.2491
     24 O          63.0274   82.9894   15.1670 O.2     1  UNL1       -0.2699
     25 C          62.1974   89.8868   12.2663 C.3     1  UNL1        0.1250
     26 C          63.4528   90.7073   12.2969 C.ar    1  UNL1       -0.0018
     27 C          64.2839   90.7602   13.5446 C.ar    1  UNL1        0.0005
     28 C          65.5392   91.5806   13.5752 C.ar    1  UNL1        0.0363
     29 C          65.9635   92.3481   12.3582 C.ar    1  UNL1        0.1337
     30 O          67.2188   93.1686   12.3889 O.3     1  UNL1       -0.5055
     31 C          65.1324   92.2952   11.1107 C.ar    1  UNL1        0.0363
     32 C          63.8770   91.4748   11.0800 C.ar    1  UNL1        0.0005
     33 H          67.7380   93.2017   13.1682 H       1  UNL1        0.2922
@<TRIPOS>BOND
     1    20    21    1
     2    21    22    1
     3    21    23   am
     4    23    24    2
     5    23    14    1
     6    14    15   ar
     7    15    16   ar
     8    16    17   ar
     9    17     1    1
    10     1    25    1
    11    25    26    1
    12    26    27   ar
    13    27    28   ar
    14    28    29   ar
    15    29    30    1
    16    29    31   ar
    17    31    32   ar
    18     1     2   am
    19     2     3    2
    20     2     4    1
    21     4     5   ar
    22     5     6   ar
    23     6     7   ar
    24     7     8    1
    25     7     9   ar
    26     9    10   ar
    27    10    11    1
    28    17    18   ar
    29    18    19   ar
    30    19    14   ar
    31    32    26   ar
    32    10     4   ar
    33    30    33    1
    34     8    12    1
    35    11    13    1
@<TRIPOS>MOLECULE
*****
 33 35 0 0 0
SMALL
GASTEIGER

@<TRIPOS>ATOM
      1 N          62.0321   88.1561   11.4489 N.am    1  UNL1       -0.2508
      2 C          61.5044   88.4416   10.0742 C.2     1  UNL1        0.2559
      3 O          61.0551   89.8272    9.7161 O.2     1  UNL1       -0.2695
      4 C          61.4261   87.3415    9.0574 C.ar    1  UNL1        0.0877
      5 C          62.6559   86.5598    8.7019 C.ar    1  UNL1        0.0107
      6 C          62.5776   85.4598    7.6852 C.ar    1  UNL1        0.0370
      7 C          61.2694   85.1414    7.0239 C.ar    1  UNL1        0.1367
      8 O          61.1911   84.0413    6.0072 O.3     1  UNL1       -0.5054
      9 C          60.0395   85.9231    7.3794 C.ar    1  UNL1        0.0733
     10 C          60.1179   87.0232    8.3962 C.ar    1  UNL1        0.1410
     11 O          58.8880   87.8049    8.7516 O.3     1  UNL1       -0.5053
     12 H          61.9594   83.5530    5.7852 H       1  UNL1        0.2922
     13 H          58.0708   87.6060    8.3386 H       1  UNL1        0.2922
     14 C          63.3801   83.9993   12.5232 C.ar    1  UNL1        0.0537
     15 C          63.9860   85.1858   13.2124 C.ar    1  UNL1        0.0058
     16 C          63.5366   86.5714   12.8543 C.ar    1  UNL1        0.0151
     17 C          62.4814   86.7705   11.8070 C.ar    1  UNL1        0.0544
     18 C          61.8755   85.5840   11.1178 C.ar    1  UNL1        0.0151
     19 C          62.3248   84.1984   11.4759 C.ar    1  UNL1        0.0058
     20 C          63.5245   80.4371   14.2667 C.3     1  UNL1        0.1152
     21 N          63.0752   81.8227   13.9086 N.am    1  UNL1       -0.2726
     22 C          61.8716   82.4173   14.5779 C.3     1  UNL1        0.1152
     23 C          63.8294   82.6137   12.8813 C.2     1  UNL1        0.2491
     24 O          65.0329   82.0191   12.2120 O.2     1  UNL1       -0.2699
     25 C          62.1104   89.2562   12.4656 C.3     1  UNL1        0.1250
     26 C          63.2881   90.1851   12.4763 C.ar    1  UNL1       -0.0018
     27 C          64.1903   90.2386   13.6735 C.ar    1  UNL1        0.0005
     28 C          65.3680   91.1675   13.6842 C.ar    1  UNL1        0.0363
     29 C          65.6435   92.0429   12.4977 C.ar    1  UNL1        0.1337
     30 O          66.8212   92.9718   12.5084 O.3     1  UNL1       -0.5055
     31 C          64.7413   91.9894   11.3006 C.ar    1  UNL1        0.0363
     32 C          63.5636   91.0605   11.2899 C.ar    1  UNL1        0.0005
     33 H          67.3848   93.0053   13.2562 H       1  UNL1        0.2922
@<TRIPOS>BOND
     1    20    21    1
     2    21    22    1
     3    21    23   am
     4    23    24    2
     5    23    14    1
     6    14    15   ar
     7    15    16   ar
     8    16    17   ar
     9    17     1    1
    10     1    25    1
    11    25    26    1
    12    26    27   ar
    13    27    28   ar
    14    28    29   ar
    15    29    30    1
    16    29    31   ar
    17    31    32   ar
    18     1     2   am
    19     2     3    2
    20     2     4    1
    21     4     5   ar
    22     5     6   ar
    23     6     7   ar
    24     7     8    1
    25     7     9   ar
    26     9    10   ar
    27    10    11    1
    28    17    18   ar
    29    18    19   ar
    30    19    14   ar
    31    32    26   ar
    32    10     4   ar
    33    30    33    1
    34     8    12    1
    35    11    13    1
@<TRIPOS>MOLECULE
*****
 33 35 0 0 0
SMALL
GASTEIGER

@<TRIPOS>ATOM
      1 N          64.1121   91.4201   12.7162 N.am    1  UNL1       -0.2508
      2 C          64.5685   91.1365   14.1166 C.2     1  UNL1        0.2559
      3 O          65.4311   92.1280   14.8396 O.2     1  UNL1       -0.2695
      4 C          64.1622   89.8613   14.7941 C.ar    1  UNL1        0.0877
      5 C          64.4590   88.5409   14.1474 C.ar    1  UNL1        0.0107
      6 C          64.0528   87.2658   14.8248 C.ar    1  UNL1        0.0370
      7 C          63.3497   87.3111   16.1491 C.ar    1  UNL1        0.1367
      8 O          62.9434   86.0360   16.8266 O.3     1  UNL1       -0.5054
      9 C          63.0528   88.6315   16.7959 C.ar    1  UNL1        0.0733
     10 C          63.4591   89.9067   16.1183 C.ar    1  UNL1        0.1410
     11 O          63.1623   91.2271   16.7651 O.3     1  UNL1       -0.5053
     12 H          63.1288   85.2111   16.4226 H       1  UNL1        0.2922
     13 H          62.7231   91.2555   17.5923 H       1  UNL1        0.2922
     14 C          61.5240   88.4455   10.5473 C.ar    1  UNL1        0.0537
     15 C          61.1427   88.9098   11.9217 C.ar    1  UNL1        0.0058
     16 C          62.0054   89.9013   12.6447 C.ar    1  UNL1        0.0151
     17 C          63.2494   90.4286   11.9932 C.ar    1  UNL1        0.0544
     18 C          63.6307   89.9643   10.6188 C.ar    1  UNL1        0.0151
     19 C          62.7680   88.9728    9.8958 C.ar    1  UNL1        0.0058
     20 C          58.9537   86.9067    7.9444 C.3     1  UNL1        0.1152
     21 N          59.8164   87.8982    8.6673 N.am    1  UNL1       -0.2726
     22 C          59.8340   89.3339    8.2332 C.3     1  UNL1        0.1152
     23 C          60.6613   87.4540    9.8243 C.2     1  UNL1        0.2491
     24 O          60.6436   86.0183   10.2584 O.2     1  UNL1       -0.2699
     25 C          64.5183   92.6952   12.0387 C.3     1  UNL1        0.1250
     26 C          65.8479   92.7882   11.3504 C.ar    1  UNL1       -0.0018
     27 C          66.0238   93.7101   10.1803 C.ar    1  UNL1        0.0005
     28 C          67.3533   93.8031    9.4920 C.ar    1  UNL1        0.0363
     29 C          68.5069   92.9741    9.9739 C.ar    1  UNL1        0.1337
     30 O          69.8364   93.0671    9.2856 O.3     1  UNL1       -0.5055
     31 C          68.3309   92.0522   11.1439 C.ar    1  UNL1        0.0363
     32 C          67.0014   91.9592   11.8322 C.ar    1  UNL1        0.0005
     33 H          69.9463   93.6430    8.5547 H       1  UNL1        0.2922
@<TRIPOS>BOND
     1    20    21    1
     2    21    22    1
     3    21    23   am
     4    23    24    2
     5    23    14    1
     6    14    15   ar
     7    15    16   ar
     8    16    17   ar
     9    17     1    1
    10     1    25    1
    11    25    26    1
    12    26    27   ar
    13    27    28   ar
    14    28    29   ar
    15    29    30    1
    16    29    31   ar
    17    31    32   ar
    18     1     2   am
    19     2     3    2
    20     2     4    1
    21     4     5   ar
    22     5     6   ar
    23     6     7   ar
    24     7     8    1
    25     7     9   ar
    26     9    10   ar
    27    10    11    1
    28    17    18   ar
    29    18    19   ar
    30    19    14   ar
    31    32    26   ar
    32    10     4   ar
    33    30    33    1
    34     8    12    1
    35    11    13    1
@<TRIPOS>MOLECULE
*****
 33 35 0 0 0
SMALL
GASTEIGER

@<TRIPOS>ATOM
      1 N          64.0068   85.4601   13.3923 N.am    1  UNL1       -0.2508
      2 C          64.5335   86.0014   14.6882 C.2     1  UNL1        0.2559
      3 O          65.4100   85.1482   15.5565 O.2     1  UNL1       -0.2695
      4 C          64.1838   87.3960   15.1160 C.ar    1  UNL1        0.0877
      5 C          64.7944   88.5716   14.4124 C.ar    1  UNL1        0.0107
      6 C          64.4447   89.9661   14.8401 C.ar    1  UNL1        0.0370
      7 C          63.4843   90.1851   15.9715 C.ar    1  UNL1        0.1367
      8 O          63.1346   91.5796   16.3992 O.3     1  UNL1       -0.5054
      9 C          62.8738   89.0094   16.6751 C.ar    1  UNL1        0.0733
     10 C          63.2235   87.6148   16.2473 C.ar    1  UNL1        0.1410
     11 O          62.6130   86.4392   16.9509 O.3     1  UNL1       -0.5053
     12 H          63.5161   92.3139   15.9597 H       1  UNL1        0.2922
     13 H          62.0131   86.5759   17.6577 H       1  UNL1        0.2922
     14 C          61.3773   88.0197   10.7876 C.ar    1  UNL1        0.0537
     15 C          61.0753   86.5598   10.9537 C.ar    1  UNL1        0.0058
     16 C          61.9518   85.7066   11.8219 C.ar    1  UNL1        0.0151
     17 C          63.1303   86.3133   12.5241 C.ar    1  UNL1        0.0544
     18 C          63.4323   87.7731   12.3581 C.ar    1  UNL1        0.0151
     19 C          62.5558   88.6263   11.4899 C.ar    1  UNL1        0.0058
     20 C          59.2418   89.2556    7.6793 C.3     1  UNL1        0.1152
     21 N          60.1183   88.4024    8.5475 N.am    1  UNL1       -0.2726
     22 C          60.6123   87.0786    8.0437 C.3     1  UNL1        0.1152
     23 C          60.5008   88.8729    9.9194 C.2     1  UNL1        0.2491
     24 O          60.0068   90.1966   10.4231 O.2     1  UNL1       -0.2699
     25 C          64.3566   84.0656   12.9646 C.3     1  UNL1        0.1250
     26 C          63.4026   82.9385   13.2288 C.ar    1  UNL1       -0.0018
     27 C          63.4325   81.7125   12.3650 C.ar    1  UNL1        0.0005
     28 C          62.4786   80.5855   12.6293 C.ar    1  UNL1        0.0363
     29 C          61.4948   80.6845   13.7573 C.ar    1  UNL1        0.1337
     30 O          60.5408   79.5574   14.0215 O.3     1  UNL1       -0.5055
     31 C          61.4649   81.9105   14.6210 C.ar    1  UNL1        0.0363
     32 C          62.4188   83.0375   14.3568 C.ar    1  UNL1        0.0005
     33 H          60.5595   78.7916   13.4820 H       1  UNL1        0.2922
@<TRIPOS>BOND
     1    20    21    1
     2    21    22    1
     3    21    23   am
     4    23    24    2
     5    23    14    1
     6    14    15   ar
     7    15    16   ar
     8    16    17   ar
     9    17     1    1
    10     1    25    1
    11    25    26    1
    12    26    27   ar
    13    27    28   ar
    14    28    29   ar
    15    29    30    1
    16    29    31   ar
    17    31    32   ar
    18     1     2   am
    19     2     3    2
    20     2     4    1
    21     4     5   ar
    22     5     6   ar
    23     6     7   ar
    24     7     8    1
    25     7     9   ar
    26     9    10   ar
    27    10    11    1
    28    17    18   ar
    29    18    19   ar
    30    19    14   ar
    31    32    26   ar
    32    10     4   ar
    33    30    33    1
    34     8    12    1
    35    11    13    1
@<TRIPOS>MOLECULE
*****
 33 35 0 0 0
SMALL
GASTEIGER

@<TRIPOS>ATOM
      1 N          60.4050   93.4649   -0.2883 N.am    1  UNL1       -0.2508
      2 C          60.7266   93.7859    1.1412 C.2     1  UNL1        0.2559
      3 O          59.8037   93.3394    2.2361 O.2     1  UNL1       -0.2695
      4 C          61.9713   94.5534    1.4758 C.ar    1  UNL1        0.0877
      5 C          61.9478   96.0532    1.4851 C.ar    1  UNL1        0.0107
      6 C          63.1923   96.8207    1.8197 C.ar    1  UNL1        0.0370
      7 C          64.4604   96.0884    2.1450 C.ar    1  UNL1        0.1367
      8 O          65.7050   96.8559    2.4795 O.3     1  UNL1       -0.5054
      9 C          64.4839   94.5886    2.1356 C.ar    1  UNL1        0.0733
     10 C          63.2393   93.8211    1.8010 C.ar    1  UNL1        0.1410
     11 O          63.2628   92.3213    1.7917 O.3     1  UNL1       -0.5053
     12 H          65.6903   97.7928    2.4854 H       1  UNL1        0.2922
     13 H          64.0549   91.8639    1.9949 H       1  UNL1        0.2922
     14 C          63.1737   94.8043   -3.5731 C.ar    1  UNL1        0.0537
     15 C          61.9868   95.6438   -3.2038 C.ar    1  UNL1        0.0058
     16 C          61.0639   95.1973   -2.1089 C.ar    1  UNL1        0.0151
     17 C          61.3279   93.9113   -1.3832 C.ar    1  UNL1        0.0544
     18 C          62.5148   93.0719   -1.7525 C.ar    1  UNL1        0.0151
     19 C          63.4377   93.5183   -2.8475 C.ar    1  UNL1        0.0058
     20 C          66.1699   96.6074   -5.4497 C.3     1  UNL1        0.1152
     21 N          65.2470   96.1610   -4.3547 N.am    1  UNL1       -0.2726
     22 C          65.4744   96.6247   -2.9464 C.3     1  UNL1        0.1152
     23 C          64.0966   95.2508   -4.6680 C.2     1  UNL1        0.2491
     24 O          63.8692   94.7870   -6.0763 O.2     1  UNL1       -0.2699
     25 C          59.1604   92.6974   -0.6228 C.3     1  UNL1        0.1250
     26 C          57.9087   93.4290   -1.0076 C.ar    1  UNL1       -0.0018
     27 C          57.8166   94.9131   -0.8098 C.ar    1  UNL1        0.0005
     28 C          56.5649   95.6447   -1.1946 C.ar    1  UNL1        0.0363
     29 C          55.4054   94.8922   -1.7772 C.ar    1  UNL1        0.1337
     30 O          54.1537   95.6239   -2.1620 O.3     1  UNL1       -0.5055
     31 C          55.4976   93.4082   -1.9750 C.ar    1  UNL1        0.0363
     32 C          56.7492   92.6766   -1.5902 C.ar    1  UNL1        0.0005
     33 H          54.0962   96.5509   -2.0384 H       1  UNL1        0.2922
@<TRIPOS>BOND
     1    20    21    1
     2    21    22    1
     3    21    23   am
     4    23    24    2
     5    23    14    1
     6    14    15   ar
     7    15    16   ar
     8    16    17   ar
     9    17     1    1
    10     1    25    1
    11    25    26    1
    12    26    27   ar
    13    27    28   ar
    14    28    29   ar
    15    29    30    1
    16    29    31   ar
    17    31    32   ar
    18     1     2   am
    19     2     3    2
    20     2     4    1
    21     4     5   ar
    22     5     6   ar
    23     6     7   ar
    24     7     8    1
    25     7     9   ar
    26     9    10   ar
    27    10    11    1
    28    17    18   ar
    29    18    19   ar
    30    19    14   ar
    31    32    26   ar
    32    10     4   ar
    33    30    33    1
    34     8    12    1
    35    11    13    1
@<TRIPOS>MOLECULE
*****
 33 35 0 0 0
SMALL
GASTEIGER

@<TRIPOS>ATOM
      1 N          62.9312   88.7765   12.6443 N.am    1  UNL1       -0.2508
      2 C          62.0467   89.3477   11.5760 C.2     1  UNL1        0.2559
      3 O          61.7981   90.8258   11.5189 O.2     1  UNL1       -0.2695
      4 C          61.4105   88.4406   10.5647 C.ar    1  UNL1        0.0877
      5 C          62.1934   87.9839    9.3694 C.ar    1  UNL1        0.0107
      6 C          61.5573   87.0769    8.3581 C.ar    1  UNL1        0.0370
      7 C          60.1384   86.6265    8.5421 C.ar    1  UNL1        0.1367
      8 O          59.5023   85.7195    7.5308 O.3     1  UNL1       -0.5054
      9 C          59.3555   87.0832    9.7373 C.ar    1  UNL1        0.0733
     10 C          59.9916   87.9903   10.7486 C.ar    1  UNL1        0.1410
     11 O          59.2088   88.4470   11.9438 O.3     1  UNL1       -0.5053
     12 H          59.9913   85.4343    6.7842 H       1  UNL1        0.2922
     13 H          58.3224   88.1657   12.0587 H       1  UNL1        0.2922
     14 C          63.6768   84.3420   12.8154 C.ar    1  UNL1        0.0537
     15 C          62.8251   84.9178   11.7231 C.ar    1  UNL1        0.0058
     16 C          62.5766   86.3959   11.6661 C.ar    1  UNL1        0.0151
     17 C          63.1797   87.2984   12.7013 C.ar    1  UNL1        0.0544
     18 C          64.0314   86.7226   13.7936 C.ar    1  UNL1        0.0151
     19 C          64.2799   85.2445   13.8507 C.ar    1  UNL1        0.0058
     20 C          63.3628   80.5238   13.8511 C.3     1  UNL1        0.1152
     21 N          63.1143   82.0020   13.7941 N.am    1  UNL1       -0.2726
     22 C          62.0547   82.6183   14.6587 C.3     1  UNL1        0.1152
     23 C          63.9253   82.8639   12.8725 C.2     1  UNL1        0.2491
     24 O          64.9848   82.2475   12.0079 O.2     1  UNL1       -0.2699
     25 C          63.5673   89.6836   13.6555 C.3     1  UNL1        0.1250
     26 C          64.4410   90.8157   13.2029 C.ar    1  UNL1       -0.0018
     27 C          64.3419   91.3230   11.7947 C.ar    1  UNL1        0.0005
     28 C          65.2157   92.4551   11.3421 C.ar    1  UNL1        0.0363
     29 C          66.1885   93.0800   12.2977 C.ar    1  UNL1        0.1337
     30 O          67.0622   94.2122   11.8452 O.3     1  UNL1       -0.5055
     31 C          66.2876   92.5728   13.7059 C.ar    1  UNL1        0.0363
     32 C          65.4138   91.4406   14.1584 C.ar    1  UNL1        0.0005
     33 H          67.0003   94.5290   10.9655 H       1  UNL1        0.2922
@<TRIPOS>BOND
     1    20    21    1
     2    21    22    1
     3    21    23   am
     4    23    24    2
     5    23    14    1
     6    14    15   ar
     7    15    16   ar
     8    16    17   ar
     9    17     1    1
    10     1    25    1
    11    25    26    1
    12    26    27   ar
    13    27    28   ar
    14    28    29   ar
    15    29    30    1
    16    29    31   ar
    17    31    32   ar
    18     1     2   am
    19     2     3    2
    20     2     4    1
    21     4     5   ar
    22     5     6   ar
    23     6     7   ar
    24     7     8    1
    25     7     9   ar
    26     9    10   ar
    27    10    11    1
    28    17    18   ar
    29    18    19   ar
    30    19    14   ar
    31    32    26   ar
    32    10     4   ar
    33    30    33    1
    34     8    12    1
    35    11    13    1
@<TRIPOS>MOLECULE
*****
 33 35 0 0 0
SMALL
GASTEIGER

@<TRIPOS>ATOM
      1 N          63.2613   89.6469   13.0710 N.am    1  UNL1       -0.2508
      2 C          62.4641   90.0755   11.8749 C.2     1  UNL1        0.2559
      3 O          62.2570   91.5346   11.5952 O.2     1  UNL1       -0.2695
      4 C          61.8739   89.0450   10.9585 C.ar    1  UNL1        0.0877
      5 C          62.7040   88.4593    9.8550 C.ar    1  UNL1        0.0107
      6 C          62.1139   87.4288    8.9385 C.ar    1  UNL1        0.0370
      7 C          60.6935   86.9841    9.1256 C.ar    1  UNL1        0.1367
      8 O          60.1034   85.9537    8.2091 O.3     1  UNL1       -0.5054
      9 C          59.8634   87.5699   10.2291 C.ar    1  UNL1        0.0733
     10 C          60.4536   88.6004   11.1456 C.ar    1  UNL1        0.1410
     11 O          59.6234   89.1861   12.2491 O.3     1  UNL1       -0.5053
     12 H          60.6220   85.5878    7.5198 H       1  UNL1        0.2922
     13 H          58.7362   88.9083   12.3659 H       1  UNL1        0.2922
     14 C          63.8824   85.2697   13.9102 C.ar    1  UNL1        0.0537
     15 C          64.4224   86.2991   14.8582 C.ar    1  UNL1        0.0058
     16 C          64.2153   87.7582   14.5785 C.ar    1  UNL1        0.0151
     17 C          63.4683   88.1879   13.3508 C.ar    1  UNL1        0.0544
     18 C          62.9283   87.1585   12.4028 C.ar    1  UNL1        0.0151
     19 C          63.1354   85.6994   12.6825 C.ar    1  UNL1        0.0058
     20 C          64.4207   81.3803   13.3334 C.3     1  UNL1        0.1152
     21 N          64.2137   82.8394   13.0537 N.am    1  UNL1       -0.2726
     22 C          64.1308   83.3272   11.6376 C.3     1  UNL1        0.1152
     23 C          64.0895   83.8107   14.1899 C.2     1  UNL1        0.2491
     24 O          64.1723   83.3229   15.6060 O.2     1  UNL1       -0.2699
     25 C          63.8514   90.6774   13.9874 C.3     1  UNL1        0.1250
     26 C          65.2903   91.0752   13.8412 C.ar    1  UNL1       -0.0018
     27 C          66.2300   90.9307   15.0014 C.ar    1  UNL1        0.0005
     28 C          67.6689   91.3284   14.8551 C.ar    1  UNL1        0.0363
     29 C          68.1681   91.8707   13.5486 C.ar    1  UNL1        0.1337
     30 O          69.6070   92.2684   13.4024 O.3     1  UNL1       -0.5055
     31 C          67.2283   92.0152   12.3885 C.ar    1  UNL1        0.0363
     32 C          65.7895   91.6174   12.5347 C.ar    1  UNL1        0.0005
     33 H          70.1940   92.1782   14.1271 H       1  UNL1        0.2922
@<TRIPOS>BOND
     1    20    21    1
     2    21    22    1
     3    21    23   am
     4    23    24    2
     5    23    14    1
     6    14    15   ar
     7    15    16   ar
     8    16    17   ar
     9    17     1    1
    10     1    25    1
    11    25    26    1
    12    26    27   ar
    13    27    28   ar
    14    28    29   ar
    15    29    30    1
    16    29    31   ar
    17    31    32   ar
    18     1     2   am
    19     2     3    2
    20     2     4    1
    21     4     5   ar
    22     5     6   ar
    23     6     7   ar
    24     7     8    1
    25     7     9   ar
    26     9    10   ar
    27    10    11    1
    28    17    18   ar
    29    18    19   ar
    30    19    14   ar
    31    32    26   ar
    32    10     4   ar
    33    30    33    1
    34     8    12    1
    35    11    13    1
