@<TRIPOS>MOLECULE
*****
 31 33 0 0 0
SMALL
GASTEIGER

@<TRIPOS>ATOM
      1 C          64.7562   91.8150   12.6601 C.ar    1  UNL1        0.1724
      2 C          65.6299   91.5113   13.8409 C.ar    1  UNL1        0.0402
      3 C          65.3595   90.2989   14.6818 C.ar    1  UNL1        0.0078
      4 C          64.2155   89.3903   14.3419 C.ar    1  UNL1        0.0566
      5 C          63.3418   89.6941   13.1611 C.ar    1  UNL1        0.0445
      6 C          63.6122   90.9064   12.3202 C.ar    1  UNL1        0.1722
      7 C          63.9451   88.1780   15.1829 C.2     1  UNL1        0.2463
      8 O          63.2171   88.3170   16.4869 O.2     1  UNL1       -0.2701
      9 N          64.4027   86.8267   14.7197 N.am    1  UNL1       -0.2943
     10 H          64.8805   86.7355   13.8638 H       1  UNL1        0.1501
     11 C          64.1323   85.6144   15.5606 C.3     1  UNL1        0.1579
     12 C          63.8535   84.2941   14.9054 C.ar    1  UNL1        0.1738
     13 C          63.8909   84.0157   13.4319 C.ar    1  UNL1        0.0553
     14 C          63.5488   82.5701   13.2244 C.ar    1  UNL1        0.1000
     15 N          63.2999   81.9550   14.5697 N.ar    1  UNL1       -0.0817
     16 O          63.4882   83.0205   15.6086 O.2     1  UNL1       -0.3563
     17 C          63.4695   81.8636   11.9036 C.3     1  UNL1        0.0436
     18 C          64.0733   82.4889   10.6811 C.3     1  UNL1        0.0064
     19 C          62.7865   80.5317   11.8054 C.3     1  UNL1        0.0064
     20 C          66.2229   93.8861   12.1041 C.3     1  UNL1        0.2526
     21 O          65.0266   93.0273   11.8192 O.3     1  UNL1       -0.4684
     22 O          62.7385   91.2101   11.1393 O.3     1  UNL1       -0.4760
     23 C          62.0890   90.0917   10.3795 C.3     1  UNL1        0.1688
     24 C          62.7758   88.7628   10.2680 C.3     1  UNL1        0.0609
     25 C          62.1264   87.6444    9.5081 C.3     1  UNL1        0.0758
     26 N          60.7902   87.8548    8.8597 N.3     1  UNL1       -0.2737
     27 C          60.1035   89.1837    8.9712 C.3     1  UNL1        0.0758
     28 C          60.7529   90.3022    9.7311 C.3     1  UNL1        0.0609
     29 C          60.1408   86.7365    8.0999 C.3     1  UNL1        0.0576
     30 C          60.9718   85.6006    7.5808 C.3     1  UNL1        0.0173
     31 C          58.6603   86.7538    7.8591 C.3     1  UNL1        0.0173
@<TRIPOS>BOND
     1    20    21    1
     2    21     1    1
     3     1     2   ar
     4     2     3   ar
     5     3     4   ar
     6     4     7    1
     7     7     8    2
     8     7     9   am
     9     9    11    1
    10    11    12    1
    11    12    13   ar
    12    13    14   ar
    13    14    17    1
    14    17    18    1
    15    17    19    1
    16    14    15   ar
    17    15    16   ar
    18     4     5   ar
    19     5     6   ar
    20     6    22    1
    21    22    23    1
    22    23    24    1
    23    24    25    1
    24    25    26    1
    25    26    29    1
    26    29    30    1
    27    29    31    1
    28    26    27    1
    29    27    28    1
    30     6     1   ar
    31    28    23    1
    32    16    12   ar
    33     9    10    1
@<TRIPOS>MOLECULE
*****
 31 33 0 0 0
SMALL
GASTEIGER

@<TRIPOS>ATOM
      1 C          60.6720   86.4186    7.9150 C.ar    1  UNL1        0.1724
      2 C          59.7621   87.6111    7.9086 C.ar    1  UNL1        0.0402
      3 C          60.0722   88.7958    8.7747 C.ar    1  UNL1        0.0078
      4 C          61.2922   88.7882    9.6473 C.ar    1  UNL1        0.0566
      5 C          62.2021   87.5957    9.6537 C.ar    1  UNL1        0.0445
      6 C          61.8920   86.4110    8.7876 C.ar    1  UNL1        0.1722
      7 C          61.6023   89.9729   10.5134 C.2     1  UNL1        0.2463
      8 O          60.5074   90.9175   10.9122 O.2     1  UNL1       -0.2701
      9 N          63.0072   90.2132   10.9806 N.am    1  UNL1       -0.2943
     10 H          63.7258   89.5932   10.7189 H       1  UNL1        0.1501
     11 C          63.3173   91.3979   11.8468 C.3     1  UNL1        0.1579
     12 C          64.6248   92.1172   11.6937 C.ar    1  UNL1        0.1738
     13 C          65.3717   92.3248   10.4095 C.ar    1  UNL1        0.0553
     14 C          66.6233   93.0910   10.7200 C.ar    1  UNL1        0.1000
     15 N          66.6499   93.3569   12.1960 N.ar    1  UNL1       -0.0817
     16 O          65.4147   92.7550   12.7978 O.2     1  UNL1       -0.3563
     17 C          67.6654   93.5166    9.7285 C.3     1  UNL1        0.0436
     18 C          67.6408   94.9063    9.1646 C.3     1  UNL1        0.0064
     19 C          68.7320   92.5524    9.3011 C.3     1  UNL1        0.0064
     20 C          61.4404   84.6156    6.2096 C.3     1  UNL1        0.2526
     21 O          60.3619   85.2338    7.0489 O.3     1  UNL1       -0.4684
     22 O          62.8020   85.2185    8.7941 O.3     1  UNL1       -0.4760
     23 C          63.0433   84.4661   10.0691 C.3     1  UNL1        0.1688
     24 C          62.3495   84.8866   11.3309 C.3     1  UNL1        0.0609
     25 C          62.5908   84.1342   12.6059 C.3     1  UNL1        0.0758
     26 N          63.5259   82.9614   12.6192 N.3     1  UNL1       -0.2737
     27 C          64.2197   82.5410   11.3576 C.3     1  UNL1        0.0758
     28 C          63.9784   83.2934   10.0825 C.3     1  UNL1        0.0609
     29 C          63.7673   82.2091   13.8942 C.3     1  UNL1        0.0576
     30 C          63.6199   80.7166   13.9238 C.3     1  UNL1        0.0173
     31 C          64.1559   82.9492   15.1397 C.3     1  UNL1        0.0173
@<TRIPOS>BOND
     1    20    21    1
     2    21     1    1
     3     1     2   ar
     4     2     3   ar
     5     3     4   ar
     6     4     7    1
     7     7     8    2
     8     7     9   am
     9     9    11    1
    10    11    12    1
    11    12    13   ar
    12    13    14   ar
    13    14    17    1
    14    17    18    1
    15    17    19    1
    16    14    15   ar
    17    15    16   ar
    18     4     5   ar
    19     5     6   ar
    20     6    22    1
    21    22    23    1
    22    23    24    1
    23    24    25    1
    24    25    26    1
    25    26    29    1
    26    29    30    1
    27    29    31    1
    28    26    27    1
    29    27    28    1
    30     6     1   ar
    31    28    23    1
    32    16    12   ar
    33     9    10    1
@<TRIPOS>MOLECULE
*****
 31 33 0 0 0
SMALL
GASTEIGER

@<TRIPOS>ATOM
      1 C          60.4640   88.2907    9.7724 C.ar    1  UNL1        0.1724
      2 C          59.9734   89.6013   10.3123 C.ar    1  UNL1        0.0402
      3 C          60.9546   90.6296   10.7915 C.ar    1  UNL1        0.0078
      4 C          62.4266   90.3473   10.7307 C.ar    1  UNL1        0.0566
      5 C          62.9172   89.0367   10.1908 C.ar    1  UNL1        0.0445
      6 C          61.9359   88.0084    9.7116 C.ar    1  UNL1        0.1722
      7 C          63.4079   91.3757   11.2099 C.2     1  UNL1        0.2463
      8 O          63.5070   91.6936   12.6724 O.2     1  UNL1       -0.2701
      9 N          64.2900   92.0861   10.2265 N.am    1  UNL1       -0.2943
     10 H          64.2250   91.8774    9.2666 H       1  UNL1        0.1501
     11 C          65.2713   93.1144   10.7057 C.3     1  UNL1        0.1579
     12 C          66.2612   92.7646   11.7771 C.ar    1  UNL1        0.1738
     13 C          66.0803   92.9831   13.2501 C.ar    1  UNL1        0.0553
     14 C          67.3130   92.4884   13.9469 C.ar    1  UNL1        0.1000
     15 N          68.2558   91.9641   12.9046 N.ar    1  UNL1       -0.0817
     16 O          67.6058   92.1348   11.5636 O.2     1  UNL1       -0.3563
     17 C          67.5597   92.5135   15.4263 C.3     1  UNL1        0.0436
     18 C          66.4028   92.5841   16.3784 C.3     1  UNL1        0.0064
     19 C          68.9632   92.4679   15.9535 C.3     1  UNL1        0.0064
     20 C          59.2693   87.0572    7.8227 C.3     1  UNL1        0.2526
     21 O          59.4827   87.2623    9.2932 O.3     1  UNL1       -0.4684
     22 O          62.4266   86.6978    9.1717 O.3     1  UNL1       -0.4760
     23 C          62.6465   85.5396   10.0991 C.3     1  UNL1        0.1688
     24 C          62.1653   85.6131   11.5180 C.3     1  UNL1        0.0609
     25 C          62.3852   84.4550   12.4455 C.3     1  UNL1        0.0758
     26 N          63.0863   83.2233   11.9542 N.3     1  UNL1       -0.2737
     27 C          63.5676   83.1497   10.5355 C.3     1  UNL1        0.0758
     28 C          63.3477   84.3079    9.6079 C.3     1  UNL1        0.0609
     29 C          63.3063   82.0652   12.8817 C.3     1  UNL1        0.0576
     30 C          62.8736   80.6872   12.4766 C.3     1  UNL1        0.0173
     31 C          63.9588   82.2849   14.2144 C.3     1  UNL1        0.0173
@<TRIPOS>BOND
     1    20    21    1
     2    21     1    1
     3     1     2   ar
     4     2     3   ar
     5     3     4   ar
     6     4     7    1
     7     7     8    2
     8     7     9   am
     9     9    11    1
    10    11    12    1
    11    12    13   ar
    12    13    14   ar
    13    14    17    1
    14    17    18    1
    15    17    19    1
    16    14    15   ar
    17    15    16   ar
    18     4     5   ar
    19     5     6   ar
    20     6    22    1
    21    22    23    1
    22    23    24    1
    23    24    25    1
    24    25    26    1
    25    26    29    1
    26    29    30    1
    27    29    31    1
    28    26    27    1
    29    27    28    1
    30     6     1   ar
    31    28    23    1
    32    16    12   ar
    33     9    10    1
@<TRIPOS>MOLECULE
*****
 31 33 0 0 0
SMALL
GASTEIGER

@<TRIPOS>ATOM
      1 C          60.6820   86.0164    7.6573 C.ar    1  UNL1        0.1724
      2 C          59.6986   87.1452    7.5644 C.ar    1  UNL1        0.0402
      3 C          59.8963   88.3819    8.3899 C.ar    1  UNL1        0.0078
      4 C          61.0773   88.4897    9.3084 C.ar    1  UNL1        0.0566
      5 C          62.0606   87.3608    9.4013 C.ar    1  UNL1        0.0445
      6 C          61.8629   86.1242    8.5757 C.ar    1  UNL1        0.1722
      7 C          61.2749   89.7264   10.1340 C.2     1  UNL1        0.2463
      8 O          60.1189   90.6453   10.3970 O.2     1  UNL1       -0.2701
      9 N          62.6286   90.0442   10.6965 N.am    1  UNL1       -0.2943
     10 H          63.3874   89.4412   10.5238 H       1  UNL1        0.1501
     11 C          62.8263   91.2809   11.5220 C.3     1  UNL1        0.1579
     12 C          63.7156   91.2425   12.7294 C.ar    1  UNL1        0.1738
     13 C          65.0509   91.9128   12.8626 C.ar    1  UNL1        0.0553
     14 C          65.5864   91.6116   14.2310 C.ar    1  UNL1        0.1000
     15 N          64.5820   90.7551   14.9435 N.ar    1  UNL1       -0.0817
     16 O          63.4258   90.5270   14.0155 O.2     1  UNL1       -0.3563
     17 C          66.8962   92.0839   14.7889 C.3     1  UNL1        0.0436
     18 C          66.9458   92.7306   16.1415 C.3     1  UNL1        0.0064
     19 C          68.1564   91.9096   13.9943 C.3     1  UNL1        0.0064
     20 C          61.5498   84.3406    5.8717 C.3     1  UNL1        0.2526
     21 O          60.4843   84.7797    6.8317 O.3     1  UNL1       -0.4684
     22 O          62.8463   84.9953    8.6687 O.3     1  UNL1       -0.4760
     23 C          63.0848   84.3147    9.9839 C.3     1  UNL1        0.1688
     24 C          64.0316   83.1542   10.0672 C.3     1  UNL1        0.0609
     25 C          64.2700   82.4736   11.3824 C.3     1  UNL1        0.0758
     26 N          63.5617   82.9534   12.6145 N.3     1  UNL1       -0.2737
     27 C          62.6148   84.1138   12.5313 C.3     1  UNL1        0.0758
     28 C          62.3764   84.7945   11.2160 C.3     1  UNL1        0.0609
     29 C          63.8001   82.2729   13.9297 C.3     1  UNL1        0.0576
     30 C          63.6758   80.7818   14.0360 C.3     1  UNL1        0.0173
     31 C          64.1628   83.0833   15.1387 C.3     1  UNL1        0.0173
@<TRIPOS>BOND
     1    20    21    1
     2    21     1    1
     3     1     2   ar
     4     2     3   ar
     5     3     4   ar
     6     4     7    1
     7     7     8    2
     8     7     9   am
     9     9    11    1
    10    11    12    1
    11    12    13   ar
    12    13    14   ar
    13    14    17    1
    14    17    18    1
    15    17    19    1
    16    14    15   ar
    17    15    16   ar
    18     4     5   ar
    19     5     6   ar
    20     6    22    1
    21    22    23    1
    22    23    24    1
    23    24    25    1
    24    25    26    1
    25    26    29    1
    26    29    30    1
    27    29    31    1
    28    26    27    1
    29    27    28    1
    30     6     1   ar
    31    28    23    1
    32    16    12   ar
    33     9    10    1
@<TRIPOS>MOLECULE
*****
 31 33 0 0 0
SMALL
GASTEIGER

@<TRIPOS>ATOM
      1 C          64.1552   83.2838   13.7819 C.ar    1  UNL1        0.1724
      2 C          64.3228   83.5112   15.2551 C.ar    1  UNL1        0.0402
      3 C          64.1731   84.8916   15.8227 C.ar    1  UNL1        0.0078
      4 C          63.8559   86.0445   14.9171 C.ar    1  UNL1        0.0566
      5 C          63.6884   85.8171   13.4440 C.ar    1  UNL1        0.0445
      6 C          63.8380   84.4367   12.8764 C.ar    1  UNL1        0.1722
      7 C          63.7063   87.4249   15.4847 C.2     1  UNL1        0.2463
      8 O          63.1534   87.6118   16.8665 O.2     1  UNL1       -0.2701
      9 N          64.1096   88.6184   14.6706 N.am    1  UNL1       -0.2943
     10 H          64.4725   88.4957   13.7636 H       1  UNL1        0.1501
     11 C          63.9600   89.9988   15.2381 C.3     1  UNL1        0.1579
     12 C          64.7384   91.1392   14.6519 C.ar    1  UNL1        0.1738
     13 C          64.9750   91.3866   13.1915 C.ar    1  UNL1        0.0553
     14 C          65.7996   92.6327   13.0601 C.ar    1  UNL1        0.1000
     15 N          66.0726   93.1554   14.4393 N.ar    1  UNL1       -0.0817
     16 O          65.4168   92.2323   15.4231 O.2     1  UNL1       -0.3563
     17 C          66.2688   93.2481   11.7751 C.3     1  UNL1        0.0436
     18 C          66.1000   94.7204   11.5430 C.3     1  UNL1        0.0064
     19 C          66.9068   92.3911   10.7222 C.3     1  UNL1        0.0064
     20 C          63.0959   81.0368   13.0210 C.3     1  UNL1        0.2526
     21 O          64.3049   81.9034   13.2143 O.3     1  UNL1       -0.4684
     22 O          63.6705   84.2093   11.4032 O.3     1  UNL1       -0.4760
     23 C          62.7320   85.0724   10.6131 C.3     1  UNL1        0.1688
     24 C          62.8639   85.1533    9.1210 C.3     1  UNL1        0.0609
     25 C          61.9254   86.0164    8.3309 C.3     1  UNL1        0.0758
     26 N          60.8550   86.7985    9.0327 N.3     1  UNL1       -0.2737
     27 C          60.7231   86.7175   10.5247 C.3     1  UNL1        0.0758
     28 C          61.6616   85.8545   11.3149 C.3     1  UNL1        0.0609
     29 C          59.9165   87.6615    8.2426 C.3     1  UNL1        0.0576
     30 C          58.8413   87.0315    7.4076 C.3     1  UNL1        0.0173
     31 C          60.0530   89.1546    8.2875 C.3     1  UNL1        0.0173
@<TRIPOS>BOND
     1    20    21    1
     2    21     1    1
     3     1     2   ar
     4     2     3   ar
     5     3     4   ar
     6     4     7    1
     7     7     8    2
     8     7     9   am
     9     9    11    1
    10    11    12    1
    11    12    13   ar
    12    13    14   ar
    13    14    17    1
    14    17    18    1
    15    17    19    1
    16    14    15   ar
    17    15    16   ar
    18     4     5   ar
    19     5     6   ar
    20     6    22    1
    21    22    23    1
    22    23    24    1
    23    24    25    1
    24    25    26    1
    25    26    29    1
    26    29    30    1
    27    29    31    1
    28    26    27    1
    29    27    28    1
    30     6     1   ar
    31    28    23    1
    32    16    12   ar
    33     9    10    1
@<TRIPOS>MOLECULE
*****
 31 33 0 0 0
SMALL
GASTEIGER

@<TRIPOS>ATOM
      1 C          60.0407   88.3488    8.3039 C.ar    1  UNL1        0.1724
      2 C          59.9725   86.9204    7.8514 C.ar    1  UNL1        0.0402
      3 C          60.8601   85.8900    8.4842 C.ar    1  UNL1        0.0078
      4 C          61.8158   86.2880    9.5696 C.ar    1  UNL1        0.0566
      5 C          61.8840   87.7165   10.0221 C.ar    1  UNL1        0.0445
      6 C          60.9964   88.7469    9.3893 C.ar    1  UNL1        0.1722
      7 C          62.7034   85.2576   10.2024 C.2     1  UNL1        0.2463
      8 O          62.8052   85.1710   11.6964 O.2     1  UNL1       -0.2701
      9 N          63.4893   84.3138    9.3412 N.am    1  UNL1       -0.2943
     10 H          63.4225   84.3707    8.3606 H       1  UNL1        0.1501
     11 C          64.3768   83.2834    9.9740 C.3     1  UNL1        0.1579
     12 C          63.9848   82.6551   11.2785 C.ar    1  UNL1        0.1738
     13 C          62.8753   81.6665   11.4828 C.ar    1  UNL1        0.0553
     14 C          62.8382   81.3055   12.9382 C.ar    1  UNL1        0.1000
     15 N          63.9249   82.0709   13.6334 N.ar    1  UNL1       -0.0817
     16 O          64.6335   82.9050   12.6077 O.2     1  UNL1       -0.3563
     17 C          61.8824   80.3472   13.5848 C.3     1  UNL1        0.0436
     18 C          62.2175   78.8869   13.6560 C.3     1  UNL1        0.0064
     19 C          60.5913   80.8494   14.1602 C.3     1  UNL1        0.0064
     20 C          59.3449   89.7518    6.2309 C.3     1  UNL1        0.2526
     21 O          59.1531   89.3793    7.6711 O.3     1  UNL1       -0.4684
     22 O          61.0647   90.1754    9.8418 O.3     1  UNL1       -0.4760
     23 C          62.2103   90.6390   10.6919 C.3     1  UNL1        0.1688
     24 C          62.2728   90.2550   12.1406 C.3     1  UNL1        0.0609
     25 C          63.4184   90.7185   12.9906 C.3     1  UNL1        0.0758
     26 N          64.5016   91.5660   12.3920 N.3     1  UNL1       -0.2737
     27 C          64.4392   91.9500   10.9434 C.3     1  UNL1        0.0758
     28 C          63.2935   91.4865   10.0932 C.3     1  UNL1        0.0609
     29 C          65.6473   92.0296   13.2420 C.3     1  UNL1        0.0576
     30 C          65.9988   91.2867   14.4969 C.3     1  UNL1        0.0173
     31 C          66.4415   93.2359   12.8372 C.3     1  UNL1        0.0173
@<TRIPOS>BOND
     1    20    21    1
     2    21     1    1
     3     1     2   ar
     4     2     3   ar
     5     3     4   ar
     6     4     7    1
     7     7     8    2
     8     7     9   am
     9     9    11    1
    10    11    12    1
    11    12    13   ar
    12    13    14   ar
    13    14    17    1
    14    17    18    1
    15    17    19    1
    16    14    15   ar
    17    15    16   ar
    18     4     5   ar
    19     5     6   ar
    20     6    22    1
    21    22    23    1
    22    23    24    1
    23    24    25    1
    24    25    26    1
    25    26    29    1
    26    29    30    1
    27    29    31    1
    28    26    27    1
    29    27    28    1
    30     6     1   ar
    31    28    23    1
    32    16    12   ar
    33     9    10    1
@<TRIPOS>MOLECULE
*****
 31 33 0 0 0
SMALL
GASTEIGER

@<TRIPOS>ATOM
      1 C          62.8263   82.4005   12.9733 C.ar    1  UNL1        0.1724
      2 C          63.0037   82.2656   14.4566 C.ar    1  UNL1        0.0402
      3 C          63.3604   83.4664   15.2816 C.ar    1  UNL1        0.0078
      4 C          63.5398   84.8022   14.6233 C.ar    1  UNL1        0.0566
      5 C          63.3624   84.9372   13.1400 C.ar    1  UNL1        0.0445
      6 C          63.0056   83.7363   12.3150 C.ar    1  UNL1        0.1722
      7 C          63.8966   86.0031   15.4483 C.2     1  UNL1        0.2463
      8 O          65.3271   86.4411   15.5558 O.2     1  UNL1       -0.2701
      9 N          62.8228   86.7660   16.1659 N.am    1  UNL1       -0.2943
     10 H          61.8838   86.4785   16.0954 H       1  UNL1        0.1501
     11 C          63.1796   87.9668   16.9909 C.3     1  UNL1        0.1579
     12 C          63.4844   89.2736   16.3205 C.ar    1  UNL1        0.1738
     13 C          64.0126   89.4478   14.9274 C.ar    1  UNL1        0.0553
     14 C          64.1693   90.9174   14.6714 C.ar    1  UNL1        0.1000
     15 N          63.7379   91.6516   15.9064 N.ar    1  UNL1       -0.0817
     16 O          63.3147   90.6357   16.9255 O.2     1  UNL1       -0.3563
     17 C          64.6695   91.5431   13.4032 C.3     1  UNL1        0.0436
     18 C          65.8442   92.4752   13.4393 C.3     1  UNL1        0.0064
     19 C          63.9949   91.2367   12.0990 C.3     1  UNL1        0.0064
     20 C          62.5817   79.8248   12.7373 C.3     1  UNL1        0.2526
     21 O          62.4695   81.1997   12.1482 O.3     1  UNL1       -0.4684
     22 O          62.8282   83.8713   10.8316 O.3     1  UNL1       -0.4760
     23 C          62.1429   85.0794   10.2651 C.3     1  UNL1        0.1688
     24 C          61.4058   86.0185   11.1733 C.3     1  UNL1        0.0609
     25 C          60.7206   87.2265   10.6068 C.3     1  UNL1        0.0758
     26 N          60.7723   87.4956    9.1321 N.3     1  UNL1       -0.2737
     27 C          61.5094   86.5565    8.2238 C.3     1  UNL1        0.0758
     28 C          62.1947   85.3484    8.7903 C.3     1  UNL1        0.0609
     29 C          60.0871   88.7036    8.5655 C.3     1  UNL1        0.0576
     30 C          59.2974   88.5912    7.2951 C.3     1  UNL1        0.0173
     31 C          60.1914   90.0241    9.2694 C.3     1  UNL1        0.0173
@<TRIPOS>BOND
     1    20    21    1
     2    21     1    1
     3     1     2   ar
     4     2     3   ar
     5     3     4   ar
     6     4     7    1
     7     7     8    2
     8     7     9   am
     9     9    11    1
    10    11    12    1
    11    12    13   ar
    12    13    14   ar
    13    14    17    1
    14    17    18    1
    15    17    19    1
    16    14    15   ar
    17    15    16   ar
    18     4     5   ar
    19     5     6   ar
    20     6    22    1
    21    22    23    1
    22    23    24    1
    23    24    25    1
    24    25    26    1
    25    26    29    1
    26    29    30    1
    27    29    31    1
    28    26    27    1
    29    27    28    1
    30     6     1   ar
    31    28    23    1
    32    16    12   ar
    33     9    10    1
@<TRIPOS>MOLECULE
*****
 31 33 0 0 0
SMALL
GASTEIGER

@<TRIPOS>ATOM
      1 C          60.5932   88.7616    9.0452 C.ar    1  UNL1        0.1724
      2 C          60.2719   87.2993    8.9537 C.ar    1  UNL1        0.0402
      3 C          60.9973   86.3161    9.8238 C.ar    1  UNL1        0.0078
      4 C          62.0440   86.7951   10.7854 C.ar    1  UNL1        0.0566
      5 C          62.3654   88.2574   10.8769 C.ar    1  UNL1        0.0445
      6 C          61.6400   89.2406   10.0068 C.ar    1  UNL1        0.1722
      7 C          62.7694   85.8119   11.6556 C.2     1  UNL1        0.2463
      8 O          63.1079   84.4496   11.1269 O.2     1  UNL1       -0.2701
      9 N          63.1562   86.1910   13.0543 N.am    1  UNL1       -0.2943
     10 H          62.9341   87.0852   13.4013 H       1  UNL1        0.1501
     11 C          63.8816   85.2078   13.9244 C.3     1  UNL1        0.1579
     12 C          63.7071   83.7351   13.6988 C.ar    1  UNL1        0.1738
     13 C          62.4639   82.9422   13.9742 C.ar    1  UNL1        0.0553
     14 C          62.7335   81.5139   13.6038 C.ar    1  UNL1        0.1000
     15 N          64.1433   81.4241   13.0995 N.ar    1  UNL1       -0.0817
     16 O          64.7450   82.7969   13.1582 O.2     1  UNL1       -0.3563
     17 C          61.7636   80.3754   13.7177 C.3     1  UNL1        0.0436
     18 C          60.3580   80.6304   14.1753 C.3     1  UNL1        0.0064
     19 C          62.1993   78.9818   13.3741 C.3     1  UNL1        0.0064
     20 C          59.3575   89.3217    6.8295 C.3     1  UNL1        0.2526
     21 O          59.8679   89.7448    8.1750 O.3     1  UNL1       -0.4684
     22 O          61.9614   90.7030   10.0983 O.3     1  UNL1       -0.4760
     23 C          63.1272   91.1645   10.9217 C.3     1  UNL1        0.1688
     24 C          63.2075   90.8052   12.3758 C.3     1  UNL1        0.0609
     25 C          64.3732   91.2667   13.1992 C.3     1  UNL1        0.0758
     26 N          65.4587   92.0877   12.5684 N.3     1  UNL1       -0.2737
     27 C          65.3784   92.4471   11.1144 C.3     1  UNL1        0.0758
     28 C          64.2126   91.9855   10.2909 C.3     1  UNL1        0.0609
     29 C          66.6244   92.5493   13.3918 C.3     1  UNL1        0.0576
     30 C          66.5407   93.8385   14.1541 C.3     1  UNL1        0.0173
     31 C          67.8740   91.7217   13.4529 C.3     1  UNL1        0.0173
@<TRIPOS>BOND
     1    20    21    1
     2    21     1    1
     3     1     2   ar
     4     2     3   ar
     5     3     4   ar
     6     4     7    1
     7     7     8    2
     8     7     9   am
     9     9    11    1
    10    11    12    1
    11    12    13   ar
    12    13    14   ar
    13    14    17    1
    14    17    18    1
    15    17    19    1
    16    14    15   ar
    17    15    16   ar
    18     4     5   ar
    19     5     6   ar
    20     6    22    1
    21    22    23    1
    22    23    24    1
    23    24    25    1
    24    25    26    1
    25    26    29    1
    26    29    30    1
    27    29    31    1
    28    26    27    1
    29    27    28    1
    30     6     1   ar
    31    28    23    1
    32    16    12   ar
    33     9    10    1
@<TRIPOS>MOLECULE
*****
 31 33 0 0 0
SMALL
GASTEIGER

@<TRIPOS>ATOM
      1 C          65.7893   92.2173   15.0184 C.ar    1  UNL1        0.1724
      2 C          64.9191   91.0443   15.3597 C.ar    1  UNL1        0.0402
      3 C          64.0893   90.3909   14.2946 C.ar    1  UNL1        0.0078
      4 C          64.1298   90.9105   12.8881 C.ar    1  UNL1        0.0566
      5 C          65.0001   92.0835   12.5467 C.ar    1  UNL1        0.0445
      6 C          65.8298   92.7370   13.6119 C.ar    1  UNL1        0.1722
      7 C          63.3000   90.2571   11.8229 C.2     1  UNL1        0.2463
      8 O          63.0921   90.9453   10.5065 O.2     1  UNL1       -0.2701
      9 N          62.6782   88.9154   12.0742 N.am    1  UNL1       -0.2943
     10 H          62.8147   88.4636   12.9383 H       1  UNL1        0.1501
     11 C          61.8485   88.2620   11.0091 C.3     1  UNL1        0.1579
     12 C          62.1852   86.8775   10.5399 C.ar    1  UNL1        0.1738
     13 C          62.5542   85.7157   11.4140 C.ar    1  UNL1        0.0553
     14 C          62.8091   84.5320   10.5287 C.ar    1  UNL1        0.1000
     15 N          62.5975   84.9623    9.1073 N.ar    1  UNL1       -0.0817
     16 O          62.2119   86.4119    9.1143 O.2     1  UNL1       -0.3563
     17 C          63.2058   83.1592   10.9845 C.3     1  UNL1        0.0436
     18 C          64.2639   82.3987   10.2415 C.3     1  UNL1        0.0064
     19 C          62.5443   82.5467   12.1835 C.3     1  UNL1        0.0064
     20 C          68.0972   93.0343   15.8879 C.3     1  UNL1        0.2526
     21 O          66.6191   92.8708   16.0835 O.3     1  UNL1       -0.4684
     22 O          66.7001   93.9101   13.2704 O.3     1  UNL1       -0.4760
     23 C          66.5840   94.5637   11.9254 C.3     1  UNL1        0.1688
     24 C          65.9971   95.9392   11.8081 C.3     1  UNL1        0.0609
     25 C          65.8810   96.5929   10.4630 C.3     1  UNL1        0.0758
     26 N          66.3519   95.8711    9.2352 N.3     1  UNL1       -0.2737
     27 C          66.9387   94.4957    9.3525 C.3     1  UNL1        0.0758
     28 C          67.0548   93.8420   10.6976 C.3     1  UNL1        0.0609
     29 C          66.2358   96.5248    7.8902 C.3     1  UNL1        0.0576
     30 C          67.4721   96.8534    7.1068 C.3     1  UNL1        0.0173
     31 C          64.8834   96.8498    7.3284 C.3     1  UNL1        0.0173
@<TRIPOS>BOND
     1    20    21    1
     2    21     1    1
     3     1     2   ar
     4     2     3   ar
     5     3     4   ar
     6     4     7    1
     7     7     8    2
     8     7     9   am
     9     9    11    1
    10    11    12    1
    11    12    13   ar
    12    13    14   ar
    13    14    17    1
    14    17    18    1
    15    17    19    1
    16    14    15   ar
    17    15    16   ar
    18     4     5   ar
    19     5     6   ar
    20     6    22    1
    21    22    23    1
    22    23    24    1
    23    24    25    1
    24    25    26    1
    25    26    29    1
    26    29    30    1
    27    29    31    1
    28    26    27    1
    29    27    28    1
    30     6     1   ar
    31    28    23    1
    32    16    12   ar
    33     9    10    1
