@<TRIPOS>MOLECULE
*****
 39 43 0 0 0
SMALL
GASTEIGER

@<TRIPOS>ATOM
      1 C          63.7786   86.0456   16.7972 C.3     1  UNL1        0.2374
      2 C          63.7029   85.0332   15.6929 C.3     1  UNL1        0.1909
      3 C          64.6025   83.8451   15.5228 C.3     1  UNL1        0.1783
      4 O          64.1699   83.1088   14.2896 O.3     1  UNL1       -0.3267
      5 C          63.0028   83.8419   13.6976 C.3     1  UNL1        0.2296
      6 O          62.7141   85.0313   14.5649 O.3     1  UNL1       -0.3255
      7 C          63.0494   82.7585   12.6613 C.ar    1  UNL1        0.0409
      8 C          63.7864   82.9831   11.3742 C.ar    1  UNL1        0.0022
      9 C          63.8331   81.8996   10.3379 C.ar    1  UNL1        0.0113
     10 C          63.1429   80.5917   10.5886 C.ar    1  UNL1        0.0585
     11 CL         63.1896   79.5082    9.5523 Cl      1  UNL1       -0.0822
     12 C          62.4060   80.3671   11.8757 C.ar    1  UNL1        0.0226
     13 C          62.3593   81.4505   12.9120 C.ar    1  UNL1        0.0591
     14 CL         61.6224   81.2260   14.1991 Cl      1  UNL1       -0.0824
     15 C          61.8453   84.3485   12.8890 C.3     1  UNL1        0.1682
     16 N          62.0353   85.5006   11.9474 N.ar    1  UNL1       -0.3025
     17 C          61.5535   85.5684   10.5286 C.ar    1  UNL1        0.0982
     18 C          61.9609   86.8969    9.9637 C.ar    1  UNL1        0.1193
     19 N          62.6946   87.6501   11.0334 N.ar    1  UNL1       -0.2223
     20 C          62.7406   86.7872   12.2595 C.ar    1  UNL1        0.1788
     21 O          62.9937   87.3202   16.7013 O.3     1  UNL1       -0.4727
     22 C          64.5580   90.7459   14.2380 C.ar    1  UNL1        0.0481
     23 C          63.8043   91.0168   15.5063 C.ar    1  UNL1        0.0176
     24 C          63.2829   89.8749   16.3274 C.ar    1  UNL1        0.0382
     25 C          63.5151   88.4621   15.8802 C.ar    1  UNL1        0.1388
     26 C          64.2688   88.1912   14.6119 C.ar    1  UNL1        0.0382
     27 C          64.7902   89.3331   13.7908 C.ar    1  UNL1        0.0176
     28 N          66.1223   94.1716   11.7748 N.3     1  UNL1       -0.1549
     29 C          66.5031   94.0522   13.2207 C.3     1  UNL1        0.1169
     30 C          65.9817   92.9103   14.0417 C.3     1  UNL1        0.1099
     31 N          65.0794   91.8878   13.4169 N.pl3   1  UNL1       -0.3045
     32 C          64.6986   92.0072   11.9710 C.3     1  UNL1        0.1099
     33 C          65.2200   93.1491   11.1499 C.3     1  UNL1        0.1169
     34 S          66.6437   95.3135   10.9537 S.O2    1  UNL1        0.0587
     35 O          67.5199   94.3648   10.1906 O.2     1  UNL1       -0.1562
     36 O          65.7675   96.2623   11.7167 O.2     1  UNL1       -0.1562
     37 C          67.1651   96.4554   10.1326 C.3     1  UNL1        0.2731
     38 N          66.1852   96.8548    7.3254 N.1     1  UNL1       -0.1940
     39 C          66.6752   96.6551    8.7290 C.1     1  UNL1        0.1010
@<TRIPOS>BOND
     1    38    39    3
     2    39    37    1
     3    37    34    1
     4    34    35    2
     5    34    36    2
     6    34    28    1
     7    28    29    1
     8    29    30    1
     9    30    31    1
    10    31    22    1
    11    22    23   ar
    12    23    24   ar
    13    24    25   ar
    14    25    21    1
    15    21     1    1
    16     2     1    1
    17     2     3    1
    18     3     4    1
    19     4     5    1
    20     5    15    1
    21    15    16    1
    22    16    17   ar
    23    17    18   ar
    24    18    19   ar
    25    19    20   ar
    26     5     7    1
    27     7     8   ar
    28     8     9   ar
    29     9    10   ar
    30    10    11    1
    31    10    12   ar
    32    12    13   ar
    33    13    14    1
    34     5     6    1
    35    25    26   ar
    36    26    27   ar
    37    31    32    1
    38    32    33    1
    39    33    28    1
    40    27    22   ar
    41     6     2    1
    42    20    16   ar
    43    13     7   ar
@<TRIPOS>MOLECULE
*****
 39 43 0 0 0
SMALL
GASTEIGER

@<TRIPOS>ATOM
      1 C          58.6416   88.9496    6.6978 C.3     1  UNL1        0.2374
      2 C          59.4560   87.9904    7.5144 C.3     1  UNL1        0.1909
      3 C          59.2051   86.5183    7.6551 C.3     1  UNL1        0.1783
      4 O          60.2584   85.9531    8.5613 O.3     1  UNL1       -0.3267
      5 C          61.1602   87.0759    8.9806 C.3     1  UNL1        0.2296
      6 O          60.6644   88.3351    8.3336 O.3     1  UNL1       -0.3255
      7 C          61.8759   86.0047    9.7488 C.ar    1  UNL1        0.0409
      8 C          61.6385   85.8526   11.2222 C.ar    1  UNL1        0.0022
      9 C          62.3542   84.7813   11.9905 C.ar    1  UNL1        0.0113
     10 C          63.3072   83.8622   11.2855 C.ar    1  UNL1        0.0585
     11 CL         64.0229   82.7909   12.0537 Cl      1  UNL1       -0.0822
     12 C          63.5445   84.0143    9.8121 C.ar    1  UNL1        0.0226
     13 C          62.8289   85.0855    9.0439 C.ar    1  UNL1        0.0591
     14 CL         63.0662   85.2376    7.5706 Cl      1  UNL1       -0.0824
     15 C          62.2118   87.9749    9.5606 C.3     1  UNL1        0.1682
     16 N          61.9170   88.7752   10.7945 N.ar    1  UNL1       -0.3025
     17 C          62.9320   89.4274   11.6857 C.ar    1  UNL1        0.0982
     18 C          62.1978   90.1191   12.7958 C.ar    1  UNL1        0.1193
     19 N          60.7290   89.8944   12.5907 N.ar    1  UNL1       -0.2223
     20 C          60.5555   89.0638   11.3538 C.ar    1  UNL1        0.1788
     21 O          58.9816   90.4105    6.6969 O.3     1  UNL1       -0.4727
     22 C          61.0513   92.2368    3.1429 C.ar    1  UNL1        0.0481
     23 C          59.6419   92.6295    3.4735 C.ar    1  UNL1        0.0176
     24 C          58.9520   92.0207    4.6582 C.ar    1  UNL1        0.0382
     25 C          59.6715   91.0192    5.5122 C.ar    1  UNL1        0.1388
     26 C          61.0809   90.6266    5.1816 C.ar    1  UNL1        0.0382
     27 C          61.7708   91.2353    3.9969 C.ar    1  UNL1        0.0176
     28 N          63.1210   94.0631   -0.4111 N.3     1  UNL1       -0.1549
     29 C          63.9248   93.5917    0.7643 C.3     1  UNL1        0.1169
     30 C          63.2349   92.9829    1.9490 C.3     1  UNL1        0.1099
     31 N          61.7412   92.8455    1.9582 N.pl3   1  UNL1       -0.3045
     32 C          60.9375   93.3169    0.7827 C.3     1  UNL1        0.1099
     33 C          61.6274   93.9257   -0.4019 C.3     1  UNL1        0.1169
     34 S          63.8109   94.6718   -1.5958 S.O2    1  UNL1        0.0587
     35 O          64.9479   95.0975   -0.7149 O.2     1  UNL1       -0.1562
     36 O          62.6739   94.2462   -2.4767 O.2     1  UNL1       -0.1562
     37 C          64.5008   95.2806   -2.7805 C.3     1  UNL1        0.2731
     38 N          64.7061   93.7448   -5.3494 N.1     1  UNL1       -0.1940
     39 C          64.6034   94.5128   -4.0649 C.1     1  UNL1        0.1010
@<TRIPOS>BOND
     1    38    39    3
     2    39    37    1
     3    37    34    1
     4    34    35    2
     5    34    36    2
     6    34    28    1
     7    28    29    1
     8    29    30    1
     9    30    31    1
    10    31    22    1
    11    22    23   ar
    12    23    24   ar
    13    24    25   ar
    14    25    21    1
    15    21     1    1
    16     2     1    1
    17     2     3    1
    18     3     4    1
    19     4     5    1
    20     5    15    1
    21    15    16    1
    22    16    17   ar
    23    17    18   ar
    24    18    19   ar
    25    19    20   ar
    26     5     7    1
    27     7     8   ar
    28     8     9   ar
    29     9    10   ar
    30    10    11    1
    31    10    12   ar
    32    12    13   ar
    33    13    14    1
    34     5     6    1
    35    25    26   ar
    36    26    27   ar
    37    31    32    1
    38    32    33    1
    39    33    28    1
    40    27    22   ar
    41     6     2    1
    42    20    16   ar
    43    13     7   ar
@<TRIPOS>MOLECULE
*****
 39 43 0 0 0
SMALL
GASTEIGER

@<TRIPOS>ATOM
      1 C          58.8494   91.6693    5.3250 C.3     1  UNL1        0.2374
      2 C          59.8009   92.1972    4.2925 C.3     1  UNL1        0.1909
      3 C          61.1808   91.6773    4.0175 C.3     1  UNL1        0.1783
      4 O          61.7723   92.4964    2.9088 O.3     1  UNL1       -0.3267
      5 C          60.7581   93.5226    2.4987 C.3     1  UNL1        0.2296
      6 O          59.5396   93.3377    3.3538 O.3     1  UNL1       -0.3255
      7 C          61.8104   93.9403    1.5148 C.ar    1  UNL1        0.0409
      8 C          62.5499   95.2306    1.7102 C.ar    1  UNL1        0.0022
      9 C          63.6023   95.6484    0.7263 C.ar    1  UNL1        0.0113
     10 C          63.9151   94.7758   -0.4530 C.ar    1  UNL1        0.0585
     11 CL         64.9675   95.1935   -1.4369 Cl      1  UNL1       -0.0822
     12 C          63.1755   93.4854   -0.6484 C.ar    1  UNL1        0.0226
     13 C          62.1232   93.0677    0.3355 C.ar    1  UNL1        0.0591
     14 CL         61.3837   91.7774    0.1401 Cl      1  UNL1       -0.0824
     15 C          59.9637   94.6361    1.8828 C.3     1  UNL1        0.1682
     16 N          59.2501   94.4179    0.5816 N.ar    1  UNL1       -0.3025
     17 C          58.4450   93.2083    0.2097 C.ar    1  UNL1        0.0982
     18 C          57.9137   93.4138   -1.1779 C.ar    1  UNL1        0.1193
     19 N          58.3905   94.7506   -1.6635 N.ar    1  UNL1       -0.2223
     20 C          59.2164   95.3711   -0.5760 C.ar    1  UNL1        0.1788
     21 O          58.6340   90.1911    5.4603 O.3     1  UNL1       -0.4727
     22 C          60.6362   87.9210    8.7901 C.ar    1  UNL1        0.0481
     23 C          59.9399   87.1781    7.6887 C.ar    1  UNL1        0.0176
     24 C          59.2724   87.9347    6.5788 C.ar    1  UNL1        0.0382
     25 C          59.3014   89.4344    6.5702 C.ar    1  UNL1        0.1388
     26 C          59.9977   90.1774    7.6716 C.ar    1  UNL1        0.0382
     27 C          60.6651   89.4207    8.7815 C.ar    1  UNL1        0.0176
     28 N          62.6385   85.6509   12.1199 N.3     1  UNL1       -0.1549
     29 C          61.9397   84.9080   11.0200 C.3     1  UNL1        0.1169
     30 C          61.2723   85.6647    9.9101 C.3     1  UNL1        0.1099
     31 N          61.3036   87.1643    9.9000 N.pl3   1  UNL1       -0.3045
     32 C          62.0024   87.9072   10.9999 C.3     1  UNL1        0.1099
     33 C          62.6698   87.1505   12.1098 C.3     1  UNL1        0.1169
     34 S          63.3059   84.8942   13.2298 S.O2    1  UNL1        0.0587
     35 O          63.8009   86.1849   13.8121 O.2     1  UNL1       -0.1562
     36 O          62.8109   83.6035   12.6476 O.2     1  UNL1       -0.1562
     37 C          63.9733   84.1375   14.3398 C.3     1  UNL1        0.2731
     38 N          63.8561   81.1403   14.3941 N.1     1  UNL1       -0.1940
     39 C          63.9147   82.6390   14.3670 C.1     1  UNL1        0.1010
@<TRIPOS>BOND
     1    38    39    3
     2    39    37    1
     3    37    34    1
     4    34    35    2
     5    34    36    2
     6    34    28    1
     7    28    29    1
     8    29    30    1
     9    30    31    1
    10    31    22    1
    11    22    23   ar
    12    23    24   ar
    13    24    25   ar
    14    25    21    1
    15    21     1    1
    16     2     1    1
    17     2     3    1
    18     3     4    1
    19     4     5    1
    20     5    15    1
    21    15    16    1
    22    16    17   ar
    23    17    18   ar
    24    18    19   ar
    25    19    20   ar
    26     5     7    1
    27     7     8   ar
    28     8     9   ar
    29     9    10   ar
    30    10    11    1
    31    10    12   ar
    32    12    13   ar
    33    13    14    1
    34     5     6    1
    35    25    26   ar
    36    26    27   ar
    37    31    32    1
    38    32    33    1
    39    33    28    1
    40    27    22   ar
    41     6     2    1
    42    20    16   ar
    43    13     7   ar
@<TRIPOS>MOLECULE
*****
 39 43 0 0 0
SMALL
GASTEIGER

@<TRIPOS>ATOM
      1 C          58.9984   88.8777    6.8831 C.3     1  UNL1        0.2374
      2 C          59.8058   88.5493    8.1039 C.3     1  UNL1        0.1909
      3 C          59.6370   89.1604    9.4633 C.3     1  UNL1        0.1783
      4 O          60.6506   88.5410   10.3792 O.3     1  UNL1       -0.3267
      5 C          61.4460   87.5471    9.5858 C.3     1  UNL1        0.2296
      6 O          60.9240   87.5522    8.1795 O.3     1  UNL1       -0.3255
      7 C          62.1658   87.3245   10.8827 C.ar    1  UNL1        0.0409
      8 C          62.2071   85.9543   11.4920 C.ar    1  UNL1        0.0022
      9 C          62.9269   85.7317   12.7891 C.ar    1  UNL1        0.0113
     10 C          63.6055   86.8791   13.4768 C.ar    1  UNL1        0.0585
     11 CL         64.3253   86.6565   14.7738 Cl      1  UNL1       -0.0822
     12 C          63.5642   88.2492   12.8675 C.ar    1  UNL1        0.0226
     13 C          62.8444   88.4719   11.5706 C.ar    1  UNL1        0.0591
     14 CL         62.8031   89.8419   10.9613 Cl      1  UNL1       -0.0824
     15 C          62.3919   86.5066    9.0635 C.3     1  UNL1        0.1682
     16 N          61.9913   85.6430    7.9043 N.ar    1  UNL1       -0.3025
     17 C          62.9252   84.9324    6.9701 C.ar    1  UNL1        0.0982
     18 C          62.0975   84.1886    5.9643 C.ar    1  UNL1        0.1193
     19 N          60.6521   84.4395    6.2768 N.ar    1  UNL1       -0.2223
     20 C          60.5864   85.3384    7.4759 C.ar    1  UNL1        0.1788
     21 O          58.6947   90.3076    6.5471 O.3     1  UNL1       -0.4727
     22 C          60.9307   92.3625    3.2263 C.ar    1  UNL1        0.0481
     23 C          61.6294   91.3536    4.0887 C.ar    1  UNL1        0.0176
     24 C          60.8840   90.6686    5.1957 C.ar    1  UNL1        0.0382
     25 C          59.4400   90.9926    5.4401 C.ar    1  UNL1        0.1388
     26 C          58.7413   92.0015    4.5776 C.ar    1  UNL1        0.0382
     27 C          59.4866   92.6864    3.4707 C.ar    1  UNL1        0.0176
     28 N          63.1667   94.4174   -0.0945 N.3     1  UNL1       -0.1549
     29 C          63.8804   93.4528    0.8055 C.3     1  UNL1        0.1169
     30 C          63.1351   92.7679    1.9125 C.3     1  UNL1        0.1099
     31 N          61.6760   93.0475    2.1193 N.pl3   1  UNL1       -0.3045
     32 C          60.9623   94.0120    1.2193 C.3     1  UNL1        0.1099
     33 C          61.7076   94.6970    0.1123 C.3     1  UNL1        0.1169
     34 S          63.9120   95.1024   -1.2015 S.O2    1  UNL1        0.0587
     35 O          63.5927   96.4351   -0.5917 O.2     1  UNL1       -0.1562
     36 O          64.2313   93.7696   -1.8112 O.2     1  UNL1       -0.1562
     37 C          64.6574   95.7873   -2.3084 C.3     1  UNL1        0.2731
     38 N          64.1917   94.9736   -5.1581 N.1     1  UNL1       -0.1940
     39 C          64.4245   95.3805   -3.7332 C.1     1  UNL1        0.1010
@<TRIPOS>BOND
     1    38    39    3
     2    39    37    1
     3    37    34    1
     4    34    35    2
     5    34    36    2
     6    34    28    1
     7    28    29    1
     8    29    30    1
     9    30    31    1
    10    31    22    1
    11    22    23   ar
    12    23    24   ar
    13    24    25   ar
    14    25    21    1
    15    21     1    1
    16     2     1    1
    17     2     3    1
    18     3     4    1
    19     4     5    1
    20     5    15    1
    21    15    16    1
    22    16    17   ar
    23    17    18   ar
    24    18    19   ar
    25    19    20   ar
    26     5     7    1
    27     7     8   ar
    28     8     9   ar
    29     9    10   ar
    30    10    11    1
    31    10    12   ar
    32    12    13   ar
    33    13    14    1
    34     5     6    1
    35    25    26   ar
    36    26    27   ar
    37    31    32    1
    38    32    33    1
    39    33    28    1
    40    27    22   ar
    41     6     2    1
    42    20    16   ar
    43    13     7   ar
@<TRIPOS>MOLECULE
*****
 39 43 0 0 0
SMALL
GASTEIGER

@<TRIPOS>ATOM
      1 C          62.3863   84.4738   16.0417 C.3     1  UNL1        0.2374
      2 C          62.3885   84.4895   14.5418 C.3     1  UNL1        0.1909
      3 C          62.0477   83.3345   13.6474 C.3     1  UNL1        0.1783
      4 O          62.1804   83.7942   12.2258 O.3     1  UNL1       -0.3267
      5 C          62.6031   85.2333   12.2415 C.3     1  UNL1        0.2296
      6 O          62.7318   85.6631   13.6729 O.3     1  UNL1       -0.3255
      7 C          62.5611   85.0985   10.7482 C.ar    1  UNL1        0.0409
      8 C          61.4764   85.7761    9.9643 C.ar    1  UNL1        0.0022
      9 C          61.4343   85.6413    8.4709 C.ar    1  UNL1        0.0113
     10 C          62.4769   84.8290    7.7615 C.ar    1  UNL1        0.0585
     11 CL         62.4348   84.6942    6.2682 Cl      1  UNL1       -0.0822
     12 C          63.5615   84.1514    8.5455 C.ar    1  UNL1        0.0226
     13 C          63.6036   84.2862   10.0387 C.ar    1  UNL1        0.0591
     14 CL         64.6882   83.6087   10.8227 Cl      1  UNL1       -0.0824
     15 C          63.0171   86.6443   11.9451 C.3     1  UNL1        0.1682
     16 N          61.9929   87.6514   11.5129 N.ar    1  UNL1       -0.3025
     17 C          62.2267   88.8013   10.5786 C.ar    1  UNL1        0.0982
     18 C          60.9334   89.5460   10.4275 C.ar    1  UNL1        0.1193
     19 N          59.9004   88.8564   11.2685 N.ar    1  UNL1       -0.2223
     20 C          60.5553   87.6855   11.9393 C.ar    1  UNL1        0.1788
     21 O          63.1283   85.5313   16.8039 O.3     1  UNL1       -0.4727
     22 C          64.3782   89.3312   14.7428 C.ar    1  UNL1        0.0481
     23 C          65.0074   88.0259   14.3553 C.ar    1  UNL1        0.0176
     24 C          64.5908   86.7593   15.0424 C.ar    1  UNL1        0.0382
     25 C          63.5449   86.7980   16.1169 C.ar    1  UNL1        0.1388
     26 C          62.9157   88.1033   16.5043 C.ar    1  UNL1        0.0382
     27 C          63.3323   89.3699   15.8172 C.ar    1  UNL1        0.0176
     28 N          65.6281   93.1312   12.6816 N.3     1  UNL1       -0.1549
     29 C          66.1802   92.7956   14.0353 C.3     1  UNL1        0.1169
     30 C          65.7636   91.5290   14.7223 C.3     1  UNL1        0.1099
     31 N          64.7948   90.5979   14.0557 N.pl3   1  UNL1       -0.3045
     32 C          64.2427   90.9334   12.7020 C.3     1  UNL1        0.1099
     33 C          64.6594   92.2000   12.0149 C.3     1  UNL1        0.1169
     34 S          66.0448   94.3978   11.9945 S.O2    1  UNL1        0.0587
     35 O          66.4627   94.9760   13.3140 O.2     1  UNL1       -0.1562
     36 O          65.6268   93.8196   10.6751 O.2     1  UNL1       -0.1562
     37 C          66.4614   95.6644   11.3075 C.3     1  UNL1        0.2731
     38 N          67.6081   95.5610    8.5372 N.1     1  UNL1       -0.1940
     39 C          67.0347   95.6127    9.9224 C.1     1  UNL1        0.1010
@<TRIPOS>BOND
     1    38    39    3
     2    39    37    1
     3    37    34    1
     4    34    35    2
     5    34    36    2
     6    34    28    1
     7    28    29    1
     8    29    30    1
     9    30    31    1
    10    31    22    1
    11    22    23   ar
    12    23    24   ar
    13    24    25   ar
    14    25    21    1
    15    21     1    1
    16     2     1    1
    17     2     3    1
    18     3     4    1
    19     4     5    1
    20     5    15    1
    21    15    16    1
    22    16    17   ar
    23    17    18   ar
    24    18    19   ar
    25    19    20   ar
    26     5     7    1
    27     7     8   ar
    28     8     9   ar
    29     9    10   ar
    30    10    11    1
    31    10    12   ar
    32    12    13   ar
    33    13    14    1
    34     5     6    1
    35    25    26   ar
    36    26    27   ar
    37    31    32    1
    38    32    33    1
    39    33    28    1
    40    27    22   ar
    41     6     2    1
    42    20    16   ar
    43    13     7   ar
@<TRIPOS>MOLECULE
*****
 39 43 0 0 0
SMALL
GASTEIGER

@<TRIPOS>ATOM
      1 C          63.1536   85.9098   16.3317 C.3     1  UNL1        0.2374
      2 C          63.1026   85.7530   14.8408 C.3     1  UNL1        0.1909
      3 C          63.6972   86.6931   13.8345 C.3     1  UNL1        0.1783
      4 O          63.4101   86.1496   12.4662 O.3     1  UNL1       -0.3267
      5 C          62.6382   84.8736   12.6268 C.3     1  UNL1        0.2296
      6 O          62.4481   84.6284   14.0944 O.3     1  UNL1       -0.3255
      7 C          62.6682   84.8510   11.1274 C.ar    1  UNL1        0.0409
      8 C          63.5942   83.9142   10.4098 C.ar    1  UNL1        0.0022
      9 C          63.6242   83.8916    8.9102 C.ar    1  UNL1        0.0113
     10 C          62.7282   84.8058    8.1283 C.ar    1  UNL1        0.0585
     11 CL         62.7582   84.7832    6.6288 Cl      1  UNL1       -0.0822
     12 C          61.8022   85.7426    8.8459 C.ar    1  UNL1        0.0226
     13 C          61.7722   85.7652   10.3454 C.ar    1  UNL1        0.0591
     14 CL         60.8462   86.7020   11.0630 Cl      1  UNL1       -0.0824
     15 C          61.8724   83.5928   12.4741 C.3     1  UNL1        0.1682
     16 N          62.3938   82.3290   13.0912 N.ar    1  UNL1       -0.3025
     17 C          61.5770   81.1273   13.4633 C.ar    1  UNL1        0.0982
     18 C          62.5020   80.1006   14.0467 C.ar    1  UNL1        0.1193
     19 N          63.8905   80.6678   14.0352 N.ar    1  UNL1       -0.2223
     20 C          63.8237   82.0451   13.4446 C.ar    1  UNL1        0.1788
     21 O          63.2134   87.2795   16.9402 O.3     1  UNL1       -0.4727
     22 C          64.6692   90.7659   14.4957 C.ar    1  UNL1        0.0481
     23 C          65.1717   89.3832   14.2035 C.ar    1  UNL1        0.0176
     24 C          64.6865   88.2210   15.0183 C.ar    1  UNL1        0.0382
     25 C          63.6987   88.4416   16.1253 C.ar    1  UNL1        0.1388
     26 C          63.1961   89.8244   16.4175 C.ar    1  UNL1        0.0382
     27 C          63.6814   90.9865   15.6027 C.ar    1  UNL1        0.0176
     28 N          66.1250   94.2523   12.0512 N.3     1  UNL1       -0.1549
     29 C          66.5126   94.1351   13.4954 C.3     1  UNL1        0.1169
     30 C          66.0273   92.9729   14.3103 C.3     1  UNL1        0.1099
     31 N          65.1545   91.9280   13.6808 N.pl3   1  UNL1       -0.3045
     32 C          64.7669   92.0452   12.2365 C.3     1  UNL1        0.1099
     33 C          65.2522   93.2074   11.4217 C.3     1  UNL1        0.1169
     34 S          66.6103   95.4144   11.2363 S.O2    1  UNL1        0.0587
     35 O          65.8841   96.3576   12.1490 O.2     1  UNL1       -0.1562
     36 O          67.3364   94.4712   10.3236 O.2     1  UNL1       -0.1562
     37 C          67.0956   96.5766   10.4215 C.3     1  UNL1        0.2731
     38 N          66.2929   96.8288    7.5418 N.1     1  UNL1       -0.1940
     39 C          66.6942   96.7027    8.9817 C.1     1  UNL1        0.1010
@<TRIPOS>BOND
     1    38    39    3
     2    39    37    1
     3    37    34    1
     4    34    35    2
     5    34    36    2
     6    34    28    1
     7    28    29    1
     8    29    30    1
     9    30    31    1
    10    31    22    1
    11    22    23   ar
    12    23    24   ar
    13    24    25   ar
    14    25    21    1
    15    21     1    1
    16     2     1    1
    17     2     3    1
    18     3     4    1
    19     4     5    1
    20     5    15    1
    21    15    16    1
    22    16    17   ar
    23    17    18   ar
    24    18    19   ar
    25    19    20   ar
    26     5     7    1
    27     7     8   ar
    28     8     9   ar
    29     9    10   ar
    30    10    11    1
    31    10    12   ar
    32    12    13   ar
    33    13    14    1
    34     5     6    1
    35    25    26   ar
    36    26    27   ar
    37    31    32    1
    38    32    33    1
    39    33    28    1
    40    27    22   ar
    41     6     2    1
    42    20    16   ar
    43    13     7   ar
