@<TRIPOS>MOLECULE
*****
 40 44 0 0 0
SMALL
GASTEIGER

@<TRIPOS>ATOM
      1 C          62.7205   84.8313   16.8839 C.3     1  UNL1        0.1332
      2 N          63.2902   85.8008   15.8911 N.ar    1  UNL1       -0.2975
      3 C          63.8758   85.4523   14.5548 C.ar    1  UNL1        0.2018
      4 N          64.3218   86.7251   13.8981 N.ar    1  UNL1       -0.2134
      5 C          64.0118   87.8601   14.8285 C.ar    1  UNL1        0.1030
      6 C          64.2276   89.3400   14.7133 C.ar    1  UNL1        0.0581
      7 C          63.8059   90.2486   15.8297 C.ar    1  UNL1        0.1469
      8 C          63.1684   89.6773   17.0615 C.ar    1  UNL1        0.0391
      9 C          62.9525   88.1974   17.1767 C.ar    1  UNL1        0.0219
     10 C          63.3742   87.2888   16.0602 C.ar    1  UNL1        0.0801
     11 N          63.9947   84.0733   13.9767 N.pl3   1  UNL1       -0.2821
     12 H          64.2003   83.3098   14.5632 H       1  UNL1        0.1551
     13 C          63.8002   83.8576   12.5051 C.ar    1  UNL1        0.0779
     14 C          63.0693   84.8809   11.6872 C.ar    1  UNL1        0.0127
     15 C          62.8748   84.6652   10.2157 C.ar    1  UNL1       -0.0214
     16 C          63.4112   83.4263    9.5619 C.ar    1  UNL1       -0.0019
     17 C          64.1421   82.4031   10.3796 C.ar    1  UNL1        0.0306
     18 C          64.3366   82.6188   11.8513 C.ar    1  UNL1        0.1534
     19 F          65.0675   81.5956   12.6691 F       1  UNL1       -0.2029
     20 C          62.1439   85.6884    9.3978 C.3     1  UNL1        0.0190
     21 C          61.3277   86.0652   10.5985 C.3     1  UNL1        0.0044
     22 C          62.9602   85.3117    8.1971 C.3     1  UNL1        0.0044
     23 C          61.4131   86.7116    8.5799 C.3     1  UNL1        0.0044
     24 O          64.0218   91.7285   15.7145 O.3     1  UNL1       -0.4533
     25 C          65.3504   92.2599   15.2647 C.ar    1  UNL1        0.1485
     26 C          66.4368   92.5104   16.2683 C.ar    1  UNL1        0.0582
     27 C          67.7654   93.0417   15.8184 C.ar    1  UNL1        0.1021
     28 N          68.0077   93.3226   14.3649 N.ar    1  UNL1       -0.2406
     29 C          66.9214   93.0720   13.3614 C.ar    1  UNL1        0.1181
     30 C          65.5928   92.5407   13.8113 C.ar    1  UNL1        0.0597
     31 C          67.1637   93.3528   11.9079 C.ar    1  UNL1        0.1585
     32 N          67.6722   92.3721   10.8933 N.ar    1  UNL1       -0.2240
     33 C          67.7628   93.0768    9.5723 C.ar    1  UNL1        0.1214
     34 C          67.3103   94.4932    9.7705 C.ar    1  UNL1        0.1493
     35 N          66.9400   94.6638   11.2141 N.ar    1  UNL1       -0.3329
     36 H          66.6084   95.4909   11.6326 H       1  UNL1        0.1674
     37 C          67.2403   95.5529    8.7112 C.3     1  UNL1        0.4344
     38 F          67.1703   96.6125    7.6518 F       1  UNL1       -0.1644
     39 F          67.2253   96.6128    9.7724 F       1  UNL1       -0.1644
     40 F          67.2553   94.4930    7.6499 F       1  UNL1       -0.1644
@<TRIPOS>BOND
     1     1     2    1
     2     2     3   ar
     3     3    11    1
     4    11    13    1
     5    13    14   ar
     6    14    15   ar
     7    15    20    1
     8    20    21    1
     9    20    22    1
    10    20    23    1
    11    15    16   ar
    12    16    17   ar
    13    17    18   ar
    14    18    19    1
    15     3     4   ar
    16     4     5   ar
    17     5     6   ar
    18     6     7   ar
    19     7    24    1
    20    24    25    1
    21    25    26   ar
    22    26    27   ar
    23    27    28   ar
    24    28    29   ar
    25    29    31    1
    26    31    32   ar
    27    32    33   ar
    28    33    34   ar
    29    34    37    1
    30    37    38    1
    31    37    39    1
    32    37    40    1
    33    34    35   ar
    34    29    30   ar
    35     7     8   ar
    36     8     9   ar
    37     9    10   ar
    38    10     2   ar
    39    18    13   ar
    40    10     5   ar
    41    30    25   ar
    42    35    31   ar
    43    11    12    1
    44    35    36    1
@<TRIPOS>MOLECULE
*****
 40 44 0 0 0
SMALL
GASTEIGER

@<TRIPOS>ATOM
      1 C          63.2528   87.7202   12.4347 C.3     1  UNL1        0.1332
      2 N          62.4629   88.7483   11.6804 N.ar    1  UNL1       -0.2975
      3 C          62.3516   90.2034   12.0269 C.ar    1  UNL1        0.2018
      4 N          61.4655   90.8561   11.0077 N.ar    1  UNL1       -0.2134
      5 C          61.0292   89.8044   10.0312 C.ar    1  UNL1        0.1030
      6 C          60.1503   89.8647    8.8173 C.ar    1  UNL1        0.0581
      7 C          59.8878   88.6222    8.0190 C.ar    1  UNL1        0.1469
      8 C          60.5042   87.3194    8.4347 C.ar    1  UNL1        0.0391
      9 C          61.3832   87.2591    9.6487 C.ar    1  UNL1        0.0219
     10 C          61.6457   88.5016   10.4470 C.ar    1  UNL1        0.0801
     11 N          63.0106   90.8860   13.1887 N.pl3   1  UNL1       -0.2821
     12 H          62.5144   91.0168   14.0289 H       1  UNL1        0.1551
     13 C          64.4257   91.3693   13.0704 C.ar    1  UNL1        0.0779
     14 C          64.8682   92.0996   11.8372 C.ar    1  UNL1        0.0127
     15 C          66.2832   92.5829   11.7189 C.ar    1  UNL1       -0.0214
     16 C          67.2558   92.3359   12.8338 C.ar    1  UNL1       -0.0019
     17 C          66.8134   91.6056   14.0670 C.ar    1  UNL1        0.0306
     18 C          65.3983   91.1222   14.1853 C.ar    1  UNL1        0.1534
     19 F          64.9558   90.3919   15.4185 F       1  UNL1       -0.2029
     20 C          66.7257   93.3133   10.4856 C.3     1  UNL1        0.0190
     21 C          67.6935   92.2091   10.1789 C.3     1  UNL1        0.0044
     22 C          65.7580   94.4175   10.7924 C.3     1  UNL1        0.0044
     23 C          67.1682   94.0436    9.2525 C.3     1  UNL1        0.0044
     24 O          59.0088   88.6824    6.8050 O.3     1  UNL1       -0.4533
     25 C          59.0085   89.9074    5.9393 C.ar    1  UNL1        0.1485
     26 C          57.7718   90.7496    5.8320 C.ar    1  UNL1        0.0582
     27 C          57.7714   91.9746    4.9663 C.ar    1  UNL1        0.1021
     28 N          59.0078   92.3574    4.2080 N.ar    1  UNL1       -0.2406
     29 C          60.2444   91.5153    4.3154 C.ar    1  UNL1        0.1181
     30 C          60.2447   90.2902    5.1810 C.ar    1  UNL1        0.0597
     31 C          61.4807   91.8981    3.5570 C.ar    1  UNL1        0.1585
     32 N          62.8300   91.2562    3.6888 N.ar    1  UNL1       -0.2240
     33 C          63.7680   91.9514    2.7470 C.ar    1  UNL1        0.1214
     34 C          62.9983   93.0230    2.0332 C.ar    1  UNL1        0.1493
     35 N          61.5846   92.9900    2.5338 N.ar    1  UNL1       -0.3329
     36 H          60.8535   93.5812    2.2421 H       1  UNL1        0.1674
     37 C          63.5461   93.9625    1.0001 C.3     1  UNL1        0.4344
     38 F          64.0939   94.9020   -0.0329 F       1  UNL1       -0.1644
     39 F          64.6873   93.0218    0.7498 F       1  UNL1       -0.1644
     40 F          62.4049   94.9032    1.2505 F       1  UNL1       -0.1644
@<TRIPOS>BOND
     1     1     2    1
     2     2     3   ar
     3     3    11    1
     4    11    13    1
     5    13    14   ar
     6    14    15   ar
     7    15    20    1
     8    20    21    1
     9    20    22    1
    10    20    23    1
    11    15    16   ar
    12    16    17   ar
    13    17    18   ar
    14    18    19    1
    15     3     4   ar
    16     4     5   ar
    17     5     6   ar
    18     6     7   ar
    19     7    24    1
    20    24    25    1
    21    25    26   ar
    22    26    27   ar
    23    27    28   ar
    24    28    29   ar
    25    29    31    1
    26    31    32   ar
    27    32    33   ar
    28    33    34   ar
    29    34    37    1
    30    37    38    1
    31    37    39    1
    32    37    40    1
    33    34    35   ar
    34    29    30   ar
    35     7     8   ar
    36     8     9   ar
    37     9    10   ar
    38    10     2   ar
    39    18    13   ar
    40    10     5   ar
    41    30    25   ar
    42    35    31   ar
    43    11    12    1
    44    35    36    1
@<TRIPOS>MOLECULE
*****
 40 44 0 0 0
SMALL
GASTEIGER

@<TRIPOS>ATOM
      1 C          63.1504   90.6654   17.0521 C.3     1  UNL1        0.1332
      2 N          63.6891   89.6490   16.0894 N.ar    1  UNL1       -0.2975
      3 C          64.4994   89.9406   14.8613 C.ar    1  UNL1        0.2018
      4 N          64.8232   88.6344   14.1987 N.ar    1  UNL1       -0.2134
      5 C          64.2130   87.5355   15.0174 C.ar    1  UNL1        0.1030
      6 C          64.2051   86.0450   14.8498 C.ar    1  UNL1        0.0581
      7 C          63.4962   85.1815   15.8507 C.ar    1  UNL1        0.1469
      8 C          62.7953   85.8086   17.0193 C.ar    1  UNL1        0.0391
      9 C          62.8032   87.2992   17.1869 C.ar    1  UNL1        0.0219
     10 C          63.5121   88.1626   16.1860 C.ar    1  UNL1        0.0801
     11 N          64.9132   91.2997   14.3801 N.pl3   1  UNL1       -0.2821
     12 H          65.2709   91.9596   15.0172 H       1  UNL1        0.1551
     13 C          64.7822   91.6534   12.9284 C.ar    1  UNL1        0.0779
     14 C          65.8243   92.5059   12.2671 C.ar    1  UNL1        0.0127
     15 C          65.6933   92.8597   10.8153 C.ar    1  UNL1       -0.0214
     16 C          64.5202   92.3609   10.0248 C.ar    1  UNL1       -0.0019
     17 C          63.4781   91.5084   10.6860 C.ar    1  UNL1        0.0306
     18 C          63.6091   91.1547   12.1378 C.ar    1  UNL1        0.1534
     19 F          62.5670   90.3022   12.7990 F       1  UNL1       -0.2029
     20 C          66.7354   93.7122   10.1540 C.3     1  UNL1        0.0190
     21 C          65.8744   94.9233   10.3583 C.3     1  UNL1        0.0044
     22 C          67.5965   92.5010    9.9497 C.3     1  UNL1        0.0044
     23 C          67.7776   94.5646    9.4927 C.3     1  UNL1        0.0044
     24 O          63.4883   83.6909   15.6832 O.3     1  UNL1       -0.4533
     25 C          63.2896   83.0901   14.3232 C.ar    1  UNL1        0.1485
     26 C          63.2917   81.5996   14.1540 C.ar    1  UNL1        0.0582
     27 C          63.0930   80.9989   12.7940 C.ar    1  UNL1        0.1021
     28 N          62.8923   81.8886   11.6031 N.ar    1  UNL1       -0.2406
     29 C          62.8901   83.3790   11.7723 C.ar    1  UNL1        0.1181
     30 C          63.0888   83.9798   13.1323 C.ar    1  UNL1        0.0597
     31 C          62.6894   84.2687   10.5814 C.ar    1  UNL1        0.1585
     32 N          63.4768   84.2251    9.3055 N.ar    1  UNL1       -0.2240
     33 C          62.9400   85.2877    8.3929 C.ar    1  UNL1        0.1214
     34 C          61.8207   85.9880    9.1049 C.ar    1  UNL1        0.1493
     35 N          61.6658   85.3582   10.4575 N.ar    1  UNL1       -0.3329
     36 H          61.0079   85.6149   11.1435 H       1  UNL1        0.1674
     37 C          61.0004   87.1195    8.5600 C.3     1  UNL1        0.4344
     38 F          60.1801   88.2509    8.0150 F       1  UNL1       -0.1644
     39 F          60.1608   86.1413    7.7930 F       1  UNL1       -0.1644
     40 F          61.8401   88.0976    9.3269 F       1  UNL1       -0.1644
@<TRIPOS>BOND
     1     1     2    1
     2     2     3   ar
     3     3    11    1
     4    11    13    1
     5    13    14   ar
     6    14    15   ar
     7    15    20    1
     8    20    21    1
     9    20    22    1
    10    20    23    1
    11    15    16   ar
    12    16    17   ar
    13    17    18   ar
    14    18    19    1
    15     3     4   ar
    16     4     5   ar
    17     5     6   ar
    18     6     7   ar
    19     7    24    1
    20    24    25    1
    21    25    26   ar
    22    26    27   ar
    23    27    28   ar
    24    28    29   ar
    25    29    31    1
    26    31    32   ar
    27    32    33   ar
    28    33    34   ar
    29    34    37    1
    30    37    38    1
    31    37    39    1
    32    37    40    1
    33    34    35   ar
    34    29    30   ar
    35     7     8   ar
    36     8     9   ar
    37     9    10   ar
    38    10     2   ar
    39    18    13   ar
    40    10     5   ar
    41    30    25   ar
    42    35    31   ar
    43    11    12    1
    44    35    36    1
@<TRIPOS>MOLECULE
*****
 40 44 0 0 0
SMALL
GASTEIGER

@<TRIPOS>ATOM
      1 C          63.1396   89.7044   12.7589 C.3     1  UNL1        0.1332
      2 N          62.5664   88.6488   11.8604 N.ar    1  UNL1       -0.2975
      3 C          62.7531   87.1679   12.0090 C.ar    1  UNL1        0.2018
      4 N          62.0080   86.4928   10.8960 N.ar    1  UNL1       -0.2134
      5 C          61.3607   87.5564   10.0594 C.ar    1  UNL1        0.1030
      6 C          60.5017   87.4837    8.8319 C.ar    1  UNL1        0.0581
      7 C          59.9878   88.7435    8.2005 C.ar    1  UNL1        0.1469
      8 C          60.3330   90.0760    8.7965 C.ar    1  UNL1        0.0391
      9 C          61.1920   90.1487   10.0240 C.ar    1  UNL1        0.0219
     10 C          61.7059   88.8889   10.6554 C.ar    1  UNL1        0.0801
     11 N          63.5458   86.4826   13.0823 N.pl3   1  UNL1       -0.2821
     12 H          64.2212   86.9853   13.5925 H       1  UNL1        0.1551
     13 C          63.3094   85.0312   13.3783 C.ar    1  UNL1        0.0779
     14 C          63.3415   84.0242   12.2669 C.ar    1  UNL1        0.0127
     15 C          63.1052   82.5728   12.5629 C.ar    1  UNL1       -0.0214
     16 C          62.8367   82.1284   13.9701 C.ar    1  UNL1       -0.0019
     17 C          62.8046   83.1353   15.0814 C.ar    1  UNL1        0.0306
     18 C          63.0409   84.5867   14.7855 C.ar    1  UNL1        0.1534
     19 F          63.0088   85.5937   15.8968 F       1  UNL1       -0.2029
     20 C          63.1373   81.5658   11.4515 C.3     1  UNL1        0.0190
     21 C          63.6556   82.6163   10.5146 C.3     1  UNL1        0.0044
     22 C          62.6189   80.5154   12.3884 C.3     1  UNL1        0.0044
     23 C          63.1693   80.5589   10.3403 C.3     1  UNL1        0.0044
     24 O          59.1287   88.6708    6.9730 O.3     1  UNL1       -0.4533
     25 C          59.0271   89.8547    6.0576 C.ar    1  UNL1        0.1485
     26 C          57.7269   90.5911    5.9254 C.ar    1  UNL1        0.0582
     27 C          57.6252   91.7751    5.0100 C.ar    1  UNL1        0.1021
     28 N          58.8237   92.2226    4.2267 N.ar    1  UNL1       -0.2406
     29 C          60.1238   91.4862    4.3589 C.ar    1  UNL1        0.1181
     30 C          60.2255   90.3023    5.2743 C.ar    1  UNL1        0.0597
     31 C          61.3223   91.9337    3.5757 C.ar    1  UNL1        0.1585
     32 N          62.7056   91.3627    3.6774 N.ar    1  UNL1       -0.2240
     33 C          63.5861   92.1069    2.7178 C.ar    1  UNL1        0.1214
     34 C          62.7469   93.1380    2.0229 C.ar    1  UNL1        0.1493
     35 N          61.3477   93.0309    2.5531 N.ar    1  UNL1       -0.3329
     36 H          60.5808   93.5837    2.2783 H       1  UNL1        0.1674
     37 C          63.2232   94.1060    0.9808 C.3     1  UNL1        0.4344
     38 F          63.6995   95.0741   -0.0612 F       1  UNL1       -0.1644
     39 F          62.0118   94.9580    1.2186 F       1  UNL1       -0.1644
     40 F          64.4346   93.2540    0.7431 F       1  UNL1       -0.1644
@<TRIPOS>BOND
     1     1     2    1
     2     2     3   ar
     3     3    11    1
     4    11    13    1
     5    13    14   ar
     6    14    15   ar
     7    15    20    1
     8    20    21    1
     9    20    22    1
    10    20    23    1
    11    15    16   ar
    12    16    17   ar
    13    17    18   ar
    14    18    19    1
    15     3     4   ar
    16     4     5   ar
    17     5     6   ar
    18     6     7   ar
    19     7    24    1
    20    24    25    1
    21    25    26   ar
    22    26    27   ar
    23    27    28   ar
    24    28    29   ar
    25    29    31    1
    26    31    32   ar
    27    32    33   ar
    28    33    34   ar
    29    34    37    1
    30    37    38    1
    31    37    39    1
    32    37    40    1
    33    34    35   ar
    34    29    30   ar
    35     7     8   ar
    36     8     9   ar
    37     9    10   ar
    38    10     2   ar
    39    18    13   ar
    40    10     5   ar
    41    30    25   ar
    42    35    31   ar
    43    11    12    1
    44    35    36    1
@<TRIPOS>MOLECULE
*****
 40 44 0 0 0
SMALL
GASTEIGER

@<TRIPOS>ATOM
      1 C          60.8418   86.5226    7.8416 C.3     1  UNL1        0.1332
      2 N          60.6592   87.8713    8.4721 N.ar    1  UNL1       -0.2975
      3 C          59.7942   88.9794    7.9486 C.ar    1  UNL1        0.2018
      4 N          59.9099   90.1417    8.8898 N.ar    1  UNL1       -0.2134
      5 C          60.8463   89.7519    9.9949 C.ar    1  UNL1        0.1030
      6 C          61.3371   90.4934   11.2029 C.ar    1  UNL1        0.0581
      7 C          62.2910   89.8318   12.1527 C.ar    1  UNL1        0.1469
      8 C          62.7541   88.4286   11.8945 C.ar    1  UNL1        0.0391
      9 C          62.2633   87.6871   10.6866 C.ar    1  UNL1        0.0219
     10 C          61.3094   88.3488    9.7367 C.ar    1  UNL1        0.0801
     11 N          58.9601   88.9333    6.7028 N.pl3   1  UNL1       -0.2821
     12 H          58.3970   88.1476    6.5162 H       1  UNL1        0.1551
     13 C          58.9840   90.0843    5.7412 C.ar    1  UNL1        0.0779
     14 C          60.2686   90.4780    5.0743 C.ar    1  UNL1        0.0127
     15 C          60.2924   91.6290    4.1128 C.ar    1  UNL1       -0.0214
     16 C          59.0317   92.3864    3.8181 C.ar    1  UNL1       -0.0019
     17 C          57.7471   91.9927    4.4850 C.ar    1  UNL1        0.0306
     18 C          57.7232   90.8417    5.4466 C.ar    1  UNL1        0.1534
     19 F          56.4386   90.4481    6.1135 F       1  UNL1       -0.2029
     20 C          61.5771   92.0227    3.4458 C.3     1  UNL1        0.0190
     21 C          60.8652   93.1312    2.7288 C.3     1  UNL1        0.0044
     22 C          62.2890   90.9141    4.1629 C.3     1  UNL1        0.0044
     23 C          62.8617   92.4163    2.7790 C.3     1  UNL1        0.0044
     24 O          62.7818   90.5733   13.3607 O.3     1  UNL1       -0.4533
     25 C          64.2086   91.0307   13.4315 C.ar    1  UNL1        0.1485
     26 C          65.0069   90.8070   14.6817 C.ar    1  UNL1        0.0582
     27 C          66.4337   91.2644   14.7524 C.ar    1  UNL1        0.1021
     28 N          67.0622   91.9455   13.5730 N.ar    1  UNL1       -0.2406
     29 C          66.2640   92.1692   12.3229 C.ar    1  UNL1        0.1181
     30 C          64.8372   91.7118   12.2521 C.ar    1  UNL1        0.0597
     31 C          66.8926   92.8504   11.1435 C.ar    1  UNL1        0.1585
     32 N          68.0787   92.3568   10.3692 N.ar    1  UNL1       -0.2240
     33 C          68.3646   93.3461    9.2785 C.ar    1  UNL1        0.1214
     34 C          67.3551   94.4511    9.3786 C.ar    1  UNL1        0.1493
     35 N          66.4453   94.1447   10.5313 N.ar    1  UNL1       -0.3329
     36 H          65.6877   94.6962   10.8331 H       1  UNL1        0.1674
     37 C          67.2702   95.6516    8.4834 C.3     1  UNL1        0.4344
     38 F          67.1854   96.8521    7.5881 F       1  UNL1       -0.1644
     39 F          67.0284   94.7557    7.3049 F       1  UNL1       -0.1644
     40 F          67.5121   96.5475    9.6618 F       1  UNL1       -0.1644
@<TRIPOS>BOND
     1     1     2    1
     2     2     3   ar
     3     3    11    1
     4    11    13    1
     5    13    14   ar
     6    14    15   ar
     7    15    20    1
     8    20    21    1
     9    20    22    1
    10    20    23    1
    11    15    16   ar
    12    16    17   ar
    13    17    18   ar
    14    18    19    1
    15     3     4   ar
    16     4     5   ar
    17     5     6   ar
    18     6     7   ar
    19     7    24    1
    20    24    25    1
    21    25    26   ar
    22    26    27   ar
    23    27    28   ar
    24    28    29   ar
    25    29    31    1
    26    31    32   ar
    27    32    33   ar
    28    33    34   ar
    29    34    37    1
    30    37    38    1
    31    37    39    1
    32    37    40    1
    33    34    35   ar
    34    29    30   ar
    35     7     8   ar
    36     8     9   ar
    37     9    10   ar
    38    10     2   ar
    39    18    13   ar
    40    10     5   ar
    41    30    25   ar
    42    35    31   ar
    43    11    12    1
    44    35    36    1
@<TRIPOS>MOLECULE
*****
 40 44 0 0 0
SMALL
GASTEIGER

@<TRIPOS>ATOM
      1 C          61.3151   88.6981    9.7518 C.3     1  UNL1        0.1332
      2 N          62.0851   88.2263   10.9495 N.ar    1  UNL1       -0.2975
      3 C          62.2921   86.7979   11.3579 C.ar    1  UNL1        0.2018
      4 N          63.1183   86.7889   12.6099 N.ar    1  UNL1       -0.2134
      5 C          63.4219   88.2117   12.9752 C.ar    1  UNL1        0.1030
      6 C          64.1973   88.8132   14.1096 C.ar    1  UNL1        0.0581
      7 C          64.3342   90.3030   14.2179 C.ar    1  UNL1        0.1469
      8 C          63.6956   91.1913   13.1917 C.ar    1  UNL1        0.0391
      9 C          62.9202   90.5899   12.0572 C.ar    1  UNL1        0.0219
     10 C          62.7834   89.1001   11.9490 C.ar    1  UNL1        0.0801
     11 N          61.7654   85.5905   10.6405 N.pl3   1  UNL1       -0.2821
     12 H          60.9493   85.6596   10.0942 H       1  UNL1        0.1551
     13 C          62.4822   84.2779   10.7552 C.ar    1  UNL1        0.0779
     14 C          62.1315   83.3259   11.8602 C.ar    1  UNL1        0.0127
     15 C          62.8483   82.0133   11.9749 C.ar    1  UNL1       -0.0214
     16 C          63.9158   81.6526   10.9848 C.ar    1  UNL1       -0.0019
     17 C          64.2665   82.6044    9.8799 C.ar    1  UNL1        0.0306
     18 C          63.5497   83.9172    9.7651 C.ar    1  UNL1        0.1534
     19 F          63.9004   84.8690    8.6602 F       1  UNL1       -0.2029
     20 C          62.4976   81.0613   13.0799 C.3     1  UNL1        0.0190
     21 C          62.2600   82.2198   14.0026 C.3     1  UNL1        0.0044
     22 C          62.7352   79.9029   12.1572 C.3     1  UNL1        0.0044
     23 C          62.1470   80.1094   14.1847 C.3     1  UNL1        0.0044
     24 O          65.1096   90.9045   15.3523 O.3     1  UNL1       -0.4533
     25 C          66.0148   92.0746   15.1048 C.ar    1  UNL1        0.1485
     26 C          67.1067   92.3978   16.0813 C.ar    1  UNL1        0.0582
     27 C          68.0120   93.5680   15.8337 C.ar    1  UNL1        0.1021
     28 N          67.8253   94.4149   14.6098 N.ar    1  UNL1       -0.2406
     29 C          66.7335   94.0917   13.6334 C.ar    1  UNL1        0.1181
     30 C          65.8282   92.9215   13.8810 C.ar    1  UNL1        0.0597
     31 C          66.5468   94.9386   12.4095 C.ar    1  UNL1        0.1585
     32 N          66.1286   96.3789   12.3894 N.ar    1  UNL1       -0.2240
     33 C          66.0689   96.8243   10.9583 C.ar    1  UNL1        0.1214
     34 C          66.4503   95.6592   10.0939 C.ar    1  UNL1        0.1493
     35 N          66.7457   94.4937   10.9909 N.ar    1  UNL1       -0.3329
     36 H          67.0216   93.5946   10.6996 H       1  UNL1        0.1674
     37 C          66.5235   95.6595    8.5957 C.3     1  UNL1        0.4344
     38 F          66.5966   95.6598    7.0975 F       1  UNL1       -0.1644
     39 F          67.5197   94.5391    8.6441 F       1  UNL1       -0.1644
     40 F          65.5272   96.7798    8.5472 F       1  UNL1       -0.1644
@<TRIPOS>BOND
     1     1     2    1
     2     2     3   ar
     3     3    11    1
     4    11    13    1
     5    13    14   ar
     6    14    15   ar
     7    15    20    1
     8    20    21    1
     9    20    22    1
    10    20    23    1
    11    15    16   ar
    12    16    17   ar
    13    17    18   ar
    14    18    19    1
    15     3     4   ar
    16     4     5   ar
    17     5     6   ar
    18     6     7   ar
    19     7    24    1
    20    24    25    1
    21    25    26   ar
    22    26    27   ar
    23    27    28   ar
    24    28    29   ar
    25    29    31    1
    26    31    32   ar
    27    32    33   ar
    28    33    34   ar
    29    34    37    1
    30    37    38    1
    31    37    39    1
    32    37    40    1
    33    34    35   ar
    34    29    30   ar
    35     7     8   ar
    36     8     9   ar
    37     9    10   ar
    38    10     2   ar
    39    18    13   ar
    40    10     5   ar
    41    30    25   ar
    42    35    31   ar
    43    11    12    1
    44    35    36    1
@<TRIPOS>MOLECULE
*****
 40 44 0 0 0
SMALL
GASTEIGER

@<TRIPOS>ATOM
      1 C          63.5542   84.2628   14.7138 C.3     1  UNL1        0.1332
      2 N          63.4588   85.5647   13.9749 N.ar    1  UNL1       -0.2975
      3 C          63.1511   85.7301   12.5161 C.ar    1  UNL1        0.2018
      4 N          63.1565   87.1974   12.2048 N.ar    1  UNL1       -0.2134
      5 C          63.4676   87.9388   13.4711 C.ar    1  UNL1        0.1030
      6 C          63.6048   89.4025   13.7693 C.ar    1  UNL1        0.0581
      7 C          63.9289   89.8570   15.1615 C.ar    1  UNL1        0.1469
      8 C          64.1157   88.8479   16.2555 C.ar    1  UNL1        0.0391
      9 C          63.9785   87.3843   15.9573 C.ar    1  UNL1        0.0219
     10 C          63.6544   86.9298   14.5651 C.ar    1  UNL1        0.0801
     11 N          62.8847   84.6226   11.5401 N.pl3   1  UNL1       -0.2821
     12 H          62.9562   83.6841   11.8290 H       1  UNL1        0.1551
     13 C          62.5095   84.9450   10.1241 C.ar    1  UNL1        0.0779
     14 C          61.3999   85.9148    9.8444 C.ar    1  UNL1        0.0127
     15 C          61.0247   86.2372    8.4284 C.ar    1  UNL1       -0.0214
     16 C          61.7590   85.5897    7.2919 C.ar    1  UNL1       -0.0019
     17 C          62.8686   84.6199    7.5715 C.ar    1  UNL1        0.0306
     18 C          63.2439   84.2975    8.9877 C.ar    1  UNL1        0.1534
     19 F          64.3535   83.3277    9.2673 F       1  UNL1       -0.2029
     20 C          59.9150   87.2070    8.1487 C.3     1  UNL1        0.0190
     21 C          60.7271   88.3117    8.7571 C.3     1  UNL1        0.0044
     22 C          59.1029   86.1024    7.5403 C.3     1  UNL1        0.0044
     23 C          58.8054   88.1768    7.8690 C.3     1  UNL1        0.0044
     24 O          64.0662   91.3207   15.4597 O.3     1  UNL1       -0.4533
     25 C          65.3193   92.0501   15.0754 C.ar    1  UNL1        0.1485
     26 C          66.3323   92.4044   16.1236 C.ar    1  UNL1        0.0582
     27 C          67.5854   93.1338   15.7392 C.ar    1  UNL1        0.1021
     28 N          67.8255   93.5089   14.3068 N.ar    1  UNL1       -0.2406
     29 C          66.8126   93.1546   13.2588 C.ar    1  UNL1        0.1181
     30 C          65.5595   92.4252   13.6431 C.ar    1  UNL1        0.0597
     31 C          67.0527   93.5296   11.8264 C.ar    1  UNL1        0.1585
     32 N          67.8446   92.7378   10.8285 N.ar    1  UNL1       -0.2240
     33 C          67.8244   93.4812    9.5259 C.ar    1  UNL1        0.1214
     34 C          67.0200   94.7326    9.7187 C.ar    1  UNL1        0.1493
     35 N          66.5430   94.7625   11.1406 N.ar    1  UNL1       -0.3329
     36 H          65.9922   95.4674   11.5515 H       1  UNL1        0.1674
     37 C          66.7414   95.7715    8.6732 C.3     1  UNL1        0.4344
     38 F          66.4629   96.8104    7.6278 F       1  UNL1       -0.1644
     39 F          68.0627   95.4761    8.0276 F       1  UNL1       -0.1644
     40 F          65.4201   96.0669    9.3189 F       1  UNL1       -0.1644
@<TRIPOS>BOND
     1     1     2    1
     2     2     3   ar
     3     3    11    1
     4    11    13    1
     5    13    14   ar
     6    14    15   ar
     7    15    20    1
     8    20    21    1
     9    20    22    1
    10    20    23    1
    11    15    16   ar
    12    16    17   ar
    13    17    18   ar
    14    18    19    1
    15     3     4   ar
    16     4     5   ar
    17     5     6   ar
    18     6     7   ar
    19     7    24    1
    20    24    25    1
    21    25    26   ar
    22    26    27   ar
    23    27    28   ar
    24    28    29   ar
    25    29    31    1
    26    31    32   ar
    27    32    33   ar
    28    33    34   ar
    29    34    37    1
    30    37    38    1
    31    37    39    1
    32    37    40    1
    33    34    35   ar
    34    29    30   ar
    35     7     8   ar
    36     8     9   ar
    37     9    10   ar
    38    10     2   ar
    39    18    13   ar
    40    10     5   ar
    41    30    25   ar
    42    35    31   ar
    43    11    12    1
    44    35    36    1
@<TRIPOS>MOLECULE
*****
 40 44 0 0 0
SMALL
GASTEIGER

@<TRIPOS>ATOM
      1 C          60.5555   89.8288    8.3320 C.3     1  UNL1        0.1332
      2 N          61.3777   89.1074    9.3585 N.ar    1  UNL1       -0.2975
      3 C          62.2300   89.7474   10.4140 C.ar    1  UNL1        0.2018
      4 N          62.8709   88.6549   11.2175 N.ar    1  UNL1       -0.2134
      5 C          62.4146   87.3398   10.6587 C.ar    1  UNL1        0.1030
      6 C          62.7203   85.9237   11.0476 C.ar    1  UNL1        0.0581
      7 C          62.1031   84.7873   10.2876 C.ar    1  UNL1        0.1469
      8 C          61.1802   85.0670    9.1387 C.ar    1  UNL1        0.0391
      9 C          60.8745   86.4831    8.7498 C.ar    1  UNL1        0.0219
     10 C          61.4917   87.6194    9.5098 C.ar    1  UNL1        0.0801
     11 N          62.4099   91.2211   10.6282 N.pl3   1  UNL1       -0.2821
     12 H          61.6908   91.8460   10.3800 H       1  UNL1        0.1551
     13 C          63.6854   91.7427   11.2206 C.ar    1  UNL1        0.0779
     14 C          64.6482   92.5141   10.3674 C.ar    1  UNL1        0.0127
     15 C          65.9237   93.0357   10.9597 C.ar    1  UNL1       -0.0214
     16 C          66.2365   92.7859   12.4053 C.ar    1  UNL1       -0.0019
     17 C          65.2738   92.0144   13.2585 C.ar    1  UNL1        0.0306
     18 C          63.9982   91.4928   12.6662 C.ar    1  UNL1        0.1534
     19 F          63.0355   90.7214   13.5194 F       1  UNL1       -0.2029
     20 C          66.8865   93.8072   10.1065 C.3     1  UNL1        0.0190
     21 C          67.6771   92.5552    9.8665 C.3     1  UNL1        0.0044
     22 C          66.0960   95.0591   10.3466 C.3     1  UNL1        0.0044
     23 C          67.8493   94.5787    9.2533 C.3     1  UNL1        0.0044
     24 O          62.4087   83.3712   10.6765 O.3     1  UNL1       -0.4533
     25 C          62.7281   83.0376   12.1037 C.ar    1  UNL1        0.1485
     26 C          63.0896   81.6320   12.4825 C.ar    1  UNL1        0.0582
     27 C          63.4090   81.2984   13.9097 C.ar    1  UNL1        0.1021
     28 N          63.3667   82.3705   14.9580 N.ar    1  UNL1       -0.2406
     29 C          63.0052   83.7761   14.5791 C.ar    1  UNL1        0.1181
     30 C          62.6859   84.1096   13.1520 C.ar    1  UNL1        0.0597
     31 C          62.9629   84.8482   15.6274 C.ar    1  UNL1        0.1585
     32 N          62.6249   84.6524   17.0757 N.ar    1  UNL1       -0.2240
     33 C          62.7044   85.9875   17.7548 C.ar    1  UNL1        0.1214
     34 C          63.0916   87.0085   16.7262 C.ar    1  UNL1        0.1493
     35 N          63.2513   86.3043   15.4114 N.ar    1  UNL1       -0.3329
     36 H          63.5016   86.7241   14.5567 H       1  UNL1        0.1674
     37 C          63.2849   88.4759   16.9697 C.3     1  UNL1        0.4344
     38 F          63.4783   89.9433   17.2132 F       1  UNL1       -0.1644
     39 F          63.4939   88.6922   15.5002 F       1  UNL1       -0.1644
     40 F          63.0759   88.2596   18.4392 F       1  UNL1       -0.1644
@<TRIPOS>BOND
     1     1     2    1
     2     2     3   ar
     3     3    11    1
     4    11    13    1
     5    13    14   ar
     6    14    15   ar
     7    15    20    1
     8    20    21    1
     9    20    22    1
    10    20    23    1
    11    15    16   ar
    12    16    17   ar
    13    17    18   ar
    14    18    19    1
    15     3     4   ar
    16     4     5   ar
    17     5     6   ar
    18     6     7   ar
    19     7    24    1
    20    24    25    1
    21    25    26   ar
    22    26    27   ar
    23    27    28   ar
    24    28    29   ar
    25    29    31    1
    26    31    32   ar
    27    32    33   ar
    28    33    34   ar
    29    34    37    1
    30    37    38    1
    31    37    39    1
    32    37    40    1
    33    34    35   ar
    34    29    30   ar
    35     7     8   ar
    36     8     9   ar
    37     9    10   ar
    38    10     2   ar
    39    18    13   ar
    40    10     5   ar
    41    30    25   ar
    42    35    31   ar
    43    11    12    1
    44    35    36    1
