@<TRIPOS>MOLECULE
*****
 34 38 0 0 0
SMALL
GASTEIGER

@<TRIPOS>ATOM
      1 C          62.8940   89.4869   12.4154 C.2     1  UNL1        0.2488
      2 O          62.3995   90.8842   12.1851 O.2     1  UNL1       -0.2728
      3 N          62.3404   88.3524   11.6053 N.am    1  UNL1       -0.2779
      4 C          61.2922   88.6151   10.5649 C.3     1  UNL1        0.0935
      5 C          60.7386   87.4805    9.7548 C.3     1  UNL1        0.0219
      6 C          61.2331   86.0832    9.9851 C.3     1  UNL1        0.0078
      7 C          62.2812   85.8205   11.0254 C.3     1  UNL1        0.0419
      8 C          62.8349   86.9551   11.8355 C.3     1  UNL1        0.0953
      9 C          62.7757   84.4232   11.2557 C.ar    1  UNL1       -0.0209
     10 C          61.9879   83.4812   12.1169 C.ar    1  UNL1       -0.0042
     11 C          62.4824   82.0839   12.3472 C.ar    1  UNL1       -0.0003
     12 C          63.7648   81.6286   11.7162 C.ar    1  UNL1       -0.0000
     13 C          64.5527   82.5706   10.8549 C.ar    1  UNL1       -0.0003
     14 C          64.0582   83.9679   10.6246 C.ar    1  UNL1       -0.0042
     15 C          63.9422   89.2242   13.4558 C.3     1  UNL1        0.1943
     16 C          68.9459   93.6138   15.1715 C.3     1  UNL1        0.0307
     17 C          67.7293   92.7468   15.0364 C.ar    1  UNL1       -0.0242
     18 C          66.6503   92.8013   16.0769 C.ar    1  UNL1        0.0160
     19 C          65.4337   91.9343   15.9418 C.ar    1  UNL1        0.0970
     20 N          64.3546   91.9888   16.9824 N.ar    1  UNL1       -0.2374
     21 C          63.1380   91.1217   16.8473 C.ar    1  UNL1        0.1595
     22 C          63.0006   90.2002   15.6717 C.ar    1  UNL1        0.2806
     23 O          61.7840   89.3332   15.5367 O.2     1  UNL1       -0.2652
     24 N          64.0797   90.1457   14.6313 N.ar    1  UNL1       -0.2839
     25 C          65.2962   91.0127   14.7663 C.ar    1  UNL1        0.0803
     26 C          66.3753   90.9583   13.7259 C.ar    1  UNL1        0.0142
     27 C          67.5919   91.8253   13.8609 C.ar    1  UNL1       -0.0243
     28 C          68.6710   91.7708   12.8204 C.3     1  UNL1        0.0307
     29 C          63.8830   86.6923   12.8759 C.3     1  UNL1        0.0924
     30 N          63.6785   85.6049   13.8887 N.3     1  UNL1       -0.2713
     31 C          62.4602   85.4130   14.7424 C.3     1  UNL1        0.0722
     32 C          62.6851   84.2079   15.6069 C.3     1  UNL1        0.0188
     33 C          64.0425   83.6551   15.2875 C.3     1  UNL1        0.0188
     34 C          64.6564   84.5185   14.2256 C.3     1  UNL1        0.0722
@<TRIPOS>BOND
     1    16    17    1
     2    17    18   ar
     3    18    19   ar
     4    19    20   ar
     5    20    21   ar
     6    21    22   ar
     7    22    23    2
     8    22    24   ar
     9    24    15    1
    10    15     1    1
    11     1     2    2
    12     1     3   am
    13     3     4    1
    14     4     5    1
    15     5     6    1
    16     6     7    1
    17     7     9    1
    18     9    10   ar
    19    10    11   ar
    20    11    12   ar
    21    12    13   ar
    22    13    14   ar
    23     7     8    1
    24     8    29    1
    25    29    30    1
    26    30    31    1
    27    31    32    1
    28    32    33    1
    29    33    34    1
    30    24    25   ar
    31    25    26   ar
    32    26    27   ar
    33    27    28    1
    34    27    17   ar
    35    25    19   ar
    36     8     3    1
    37    34    30    1
    38    14     9   ar
@<TRIPOS>MOLECULE
*****
 34 38 0 0 0
SMALL
GASTEIGER

@<TRIPOS>ATOM
      1 C          63.7208   89.8419   15.0322 C.2     1  UNL1        0.2488
      2 O          63.5694   91.1435   15.7623 O.2     1  UNL1       -0.2728
      3 N          63.4527   88.5481   15.7421 N.am    1  UNL1       -0.2779
      4 C          63.0331   88.5558   17.1823 C.3     1  UNL1        0.0935
      5 C          62.7650   87.2620   17.8922 C.3     1  UNL1        0.0219
      6 C          62.9163   85.9604   17.1621 C.3     1  UNL1        0.0078
      7 C          63.3359   85.9527   15.7220 C.3     1  UNL1        0.0419
      8 C          63.6040   87.2466   15.0120 C.3     1  UNL1        0.0953
      9 C          63.4872   84.6512   14.9919 C.ar    1  UNL1       -0.0209
     10 C          62.3368   83.6911   14.9240 C.ar    1  UNL1       -0.0042
     11 C          62.4882   82.3895   14.1939 C.ar    1  UNL1       -0.0003
     12 C          63.7900   82.0481   13.5316 C.ar    1  UNL1       -0.0000
     13 C          64.9405   83.0082   13.5995 C.ar    1  UNL1       -0.0003
     14 C          64.7892   84.3098   14.3296 C.ar    1  UNL1       -0.0042
     15 C          64.1404   89.8343   13.5920 C.3     1  UNL1        0.1943
     16 C          68.8895   94.3330   15.7030 C.3     1  UNL1        0.0307
     17 C          67.8310   93.5223   15.0158 C.ar    1  UNL1       -0.0242
     18 C          67.2873   93.9678   13.6907 C.ar    1  UNL1        0.0160
     19 C          66.2287   93.1572   13.0035 C.ar    1  UNL1        0.0970
     20 N          65.6851   93.6028   11.6783 N.ar    1  UNL1       -0.2374
     21 C          64.6265   92.7921   10.9911 C.ar    1  UNL1        0.1595
     22 C          64.1116   91.5359   11.6290 C.ar    1  UNL1        0.2806
     23 O          63.0530   90.7252   10.9418 O.2     1  UNL1       -0.2652
     24 N          64.6553   91.0904   12.9541 N.ar    1  UNL1       -0.2839
     25 C          65.7138   91.9010   13.6414 C.ar    1  UNL1        0.0803
     26 C          66.2575   91.4556   14.9664 C.ar    1  UNL1        0.0142
     27 C          67.3161   92.2662   15.6537 C.ar    1  UNL1       -0.0243
     28 C          67.8597   91.8206   16.9788 C.3     1  UNL1        0.0307
     29 C          64.0236   87.2389   13.5719 C.3     1  UNL1        0.0924
     30 N          63.0238   86.9165   12.5012 N.3     1  UNL1       -0.2713
     31 C          62.7142   85.5496   11.9666 C.3     1  UNL1        0.0722
     32 C          61.6571   85.6928   10.9120 C.3     1  UNL1        0.0188
     33 C          61.3133   87.1481   10.7948 C.3     1  UNL1        0.0188
     34 C          62.1580   87.9044   11.7770 C.3     1  UNL1        0.0722
@<TRIPOS>BOND
     1    16    17    1
     2    17    18   ar
     3    18    19   ar
     4    19    20   ar
     5    20    21   ar
     6    21    22   ar
     7    22    23    2
     8    22    24   ar
     9    24    15    1
    10    15     1    1
    11     1     2    2
    12     1     3   am
    13     3     4    1
    14     4     5    1
    15     5     6    1
    16     6     7    1
    17     7     9    1
    18     9    10   ar
    19    10    11   ar
    20    11    12   ar
    21    12    13   ar
    22    13    14   ar
    23     7     8    1
    24     8    29    1
    25    29    30    1
    26    30    31    1
    27    31    32    1
    28    32    33    1
    29    33    34    1
    30    24    25   ar
    31    25    26   ar
    32    26    27   ar
    33    27    28    1
    34    27    17   ar
    35    25    19   ar
    36     8     3    1
    37    34    30    1
    38    14     9   ar
@<TRIPOS>MOLECULE
*****
 34 38 0 0 0
SMALL
GASTEIGER

@<TRIPOS>ATOM
      1 C          64.2663   87.6489   14.1510 C.2     1  UNL1        0.2488
      2 O          65.0259   87.2618   15.3852 O.2     1  UNL1       -0.2728
      3 N          63.6182   86.5920   13.3069 N.am    1  UNL1       -0.2779
      4 C          63.7296   85.1478   13.6969 C.3     1  UNL1        0.0935
      5 C          63.0815   84.0908   12.8527 C.3     1  UNL1        0.0219
      6 C          62.3219   84.4779   11.6185 C.3     1  UNL1        0.0078
      7 C          62.2105   85.9220   11.2285 C.3     1  UNL1        0.0419
      8 C          62.8586   86.9791   12.0727 C.3     1  UNL1        0.0953
      9 C          61.4509   86.3091    9.9943 C.ar    1  UNL1       -0.0209
     10 C          62.0027   85.9781    8.6394 C.ar    1  UNL1       -0.0042
     11 C          61.2431   86.3652    7.4052 C.ar    1  UNL1       -0.0003
     12 C          59.9318   87.0834    7.5260 C.ar    1  UNL1       -0.0000
     13 C          59.3799   87.4144    8.8810 C.ar    1  UNL1       -0.0003
     14 C          60.1395   87.0273   10.1151 C.ar    1  UNL1       -0.0042
     15 C          64.1549   89.0931   13.7611 C.3     1  UNL1        0.1943
     16 C          69.0426   93.7165   15.1697 C.3     1  UNL1        0.0307
     17 C          67.8376   92.8277   15.0803 C.ar    1  UNL1       -0.0242
     18 C          66.7005   93.0069   16.0419 C.ar    1  UNL1        0.0160
     19 C          65.4955   92.1181   15.9525 C.ar    1  UNL1        0.0970
     20 N          64.3583   92.2973   16.9141 N.ar    1  UNL1       -0.2374
     21 C          63.1533   91.4085   16.8247 C.ar    1  UNL1        0.1595
     22 C          63.0855   90.3404   15.7736 C.ar    1  UNL1        0.2806
     23 O          61.8805   89.4515   15.6842 O.2     1  UNL1       -0.2652
     24 N          64.2227   90.1612   14.8120 N.ar    1  UNL1       -0.2839
     25 C          65.4277   91.0500   14.9015 C.ar    1  UNL1        0.0803
     26 C          66.5649   90.8708   13.9399 C.ar    1  UNL1        0.0142
     27 C          67.7698   91.7596   14.0293 C.ar    1  UNL1       -0.0243
     28 C          68.9071   91.5804   13.0677 C.3     1  UNL1        0.0307
     29 C          62.7472   88.4232   11.6827 C.3     1  UNL1        0.0924
     30 N          61.4188   89.1170   11.7467 N.3     1  UNL1       -0.2713
     31 C          60.2967   88.7881   12.6862 C.3     1  UNL1        0.0722
     32 C          59.1637   89.7294   12.4025 C.3     1  UNL1        0.0188
     33 C          59.5856   90.6400   11.2877 C.3     1  UNL1        0.0188
     34 C          60.9793   90.2615   10.8824 C.3     1  UNL1        0.0722
@<TRIPOS>BOND
     1    16    17    1
     2    17    18   ar
     3    18    19   ar
     4    19    20   ar
     5    20    21   ar
     6    21    22   ar
     7    22    23    2
     8    22    24   ar
     9    24    15    1
    10    15     1    1
    11     1     2    2
    12     1     3   am
    13     3     4    1
    14     4     5    1
    15     5     6    1
    16     6     7    1
    17     7     9    1
    18     9    10   ar
    19    10    11   ar
    20    11    12   ar
    21    12    13   ar
    22    13    14   ar
    23     7     8    1
    24     8    29    1
    25    29    30    1
    26    30    31    1
    27    31    32    1
    28    32    33    1
    29    33    34    1
    30    24    25   ar
    31    25    26   ar
    32    26    27   ar
    33    27    28    1
    34    27    17   ar
    35    25    19   ar
    36     8     3    1
    37    34    30    1
    38    14     9   ar
@<TRIPOS>MOLECULE
*****
 34 38 0 0 0
SMALL
GASTEIGER

@<TRIPOS>ATOM
      1 C          62.4792   89.2707   12.1891 C.2     1  UNL1        0.2488
      2 O          61.8589   90.6294   12.0501 O.2     1  UNL1       -0.2728
      3 N          61.9544   88.1205   11.3819 N.am    1  UNL1       -0.2779
      4 C          60.8092   88.3289   10.4357 C.3     1  UNL1        0.0935
      5 C          60.2844   87.1787    9.6286 C.3     1  UNL1        0.0219
      6 C          60.9047   85.8201    9.7676 C.3     1  UNL1        0.0078
      7 C          62.0498   85.6116   10.7137 C.3     1  UNL1        0.0419
      8 C          62.5747   86.7619   11.5209 C.3     1  UNL1        0.0953
      9 C          62.6701   84.2530   10.8527 C.ar    1  UNL1       -0.0209
     10 C          62.1469   83.2909   11.8776 C.ar    1  UNL1       -0.0042
     11 C          62.7672   81.9323   12.0166 C.ar    1  UNL1       -0.0003
     12 C          63.9108   81.5357   11.1307 C.ar    1  UNL1       -0.0000
     13 C          64.4341   82.4978   10.1057 C.ar    1  UNL1       -0.0003
     14 C          63.8138   83.8565    9.9667 C.ar    1  UNL1       -0.0042
     15 C          63.6244   89.0624   13.1353 C.3     1  UNL1        0.1943
     16 C          66.8962   94.9599   11.8070 C.3     1  UNL1        0.0307
     17 C          66.1861   93.7631   12.3669 C.ar    1  UNL1       -0.0242
     18 C          65.9075   93.6768   13.8382 C.ar    1  UNL1        0.0160
     19 C          65.1974   92.4800   14.3982 C.ar    1  UNL1        0.0970
     20 N          64.9187   92.3938   15.8696 N.ar    1  UNL1       -0.2374
     21 C          64.2086   91.1970   16.4295 C.ar    1  UNL1        0.1595
     22 C          63.7772   90.0865   15.5180 C.ar    1  UNL1        0.2806
     23 O          63.0671   88.8897   16.0779 O.2     1  UNL1       -0.2652
     24 N          64.0558   90.1728   14.0467 N.ar    1  UNL1       -0.2839
     25 C          64.7659   91.3696   13.4868 C.ar    1  UNL1        0.0803
     26 C          65.0446   91.4559   12.0154 C.ar    1  UNL1        0.0142
     27 C          65.7547   92.6526   11.4555 C.ar    1  UNL1       -0.0243
     28 C          66.0334   92.7389    9.9841 C.3     1  UNL1        0.0307
     29 C          63.7198   86.5535   12.4671 C.3     1  UNL1        0.0924
     30 N          63.4854   85.8970   13.7953 N.3     1  UNL1       -0.2713
     31 C          64.4372   85.8879   14.9545 C.3     1  UNL1        0.0722
     32 C          63.7981   85.1197   16.0731 C.3     1  UNL1        0.0188
     33 C          62.4511   84.6540   15.6052 C.3     1  UNL1        0.0188
     34 C          62.2579   85.1344   14.1974 C.3     1  UNL1        0.0722
@<TRIPOS>BOND
     1    16    17    1
     2    17    18   ar
     3    18    19   ar
     4    19    20   ar
     5    20    21   ar
     6    21    22   ar
     7    22    23    2
     8    22    24   ar
     9    24    15    1
    10    15     1    1
    11     1     2    2
    12     1     3   am
    13     3     4    1
    14     4     5    1
    15     5     6    1
    16     6     7    1
    17     7     9    1
    18     9    10   ar
    19    10    11   ar
    20    11    12   ar
    21    12    13   ar
    22    13    14   ar
    23     7     8    1
    24     8    29    1
    25    29    30    1
    26    30    31    1
    27    31    32    1
    28    32    33    1
    29    33    34    1
    30    24    25   ar
    31    25    26   ar
    32    26    27   ar
    33    27    28    1
    34    27    17   ar
    35    25    19   ar
    36     8     3    1
    37    34    30    1
    38    14     9   ar
@<TRIPOS>MOLECULE
*****
 34 38 0 0 0
SMALL
GASTEIGER

@<TRIPOS>ATOM
      1 C          63.9425   87.9986   13.7805 C.2     1  UNL1        0.2488
      2 O          64.7329   87.7654   15.0339 O.2     1  UNL1       -0.2728
      3 N          63.4258   86.8320   12.9918 N.am    1  UNL1       -0.2779
      4 C          63.6993   85.4323   13.4565 C.3     1  UNL1        0.0935
      5 C          63.1826   84.2657   12.6678 C.3     1  UNL1        0.0219
      6 C          62.3922   84.4989   11.4144 C.3     1  UNL1        0.0078
      7 C          62.1186   85.8985   10.9497 C.3     1  UNL1        0.0419
      8 C          62.6354   87.0652   11.7384 C.3     1  UNL1        0.0953
      9 C          61.3283   86.1317    9.6963 C.ar    1  UNL1       -0.0209
     10 C          60.0490   86.9130    9.7508 C.ar    1  UNL1       -0.0042
     11 C          59.2587   87.1461    8.4974 C.ar    1  UNL1       -0.0003
     12 C          59.7476   86.5980    7.1896 C.ar    1  UNL1       -0.0000
     13 C          61.0269   85.8166    7.1351 C.ar    1  UNL1       -0.0003
     14 C          61.8173   85.5835    8.3885 C.ar    1  UNL1       -0.0042
     15 C          63.6690   89.3984   13.3158 C.3     1  UNL1        0.1943
     16 C          67.1110   94.9240   11.1091 C.3     1  UNL1        0.0307
     17 C          66.3936   93.8338   11.8486 C.ar    1  UNL1       -0.0242
     18 C          66.2487   93.9088   13.3397 C.ar    1  UNL1        0.0160
     19 C          65.5313   92.8186   14.0793 C.ar    1  UNL1        0.0970
     20 N          65.3864   92.8936   15.5704 N.ar    1  UNL1       -0.2374
     21 C          64.6690   91.8035   16.3100 C.ar    1  UNL1        0.1595
     22 C          64.0965   90.6384   15.5584 C.ar    1  UNL1        0.2806
     23 O          63.3791   89.5483   16.2980 O.2     1  UNL1       -0.2652
     24 N          64.2414   90.5634   14.0673 N.ar    1  UNL1       -0.2839
     25 C          64.9588   91.6536   13.3278 C.ar    1  UNL1        0.0803
     26 C          65.1038   91.5786   11.8367 C.ar    1  UNL1        0.0142
     27 C          65.8212   92.6687   11.0971 C.ar    1  UNL1       -0.0243
     28 C          65.9660   92.5938    9.6060 C.3     1  UNL1        0.0307
     29 C          62.3618   88.4649   11.2737 C.3     1  UNL1        0.0924
     30 N          61.0369   89.1057   11.5631 N.3     1  UNL1       -0.2713
     31 C          60.5321   90.3907   10.9766 C.3     1  UNL1        0.0722
     32 C          59.1673   90.6533   11.5409 C.3     1  UNL1        0.0188
     33 C          58.8286   89.5306   12.4762 C.3     1  UNL1        0.0188
     34 C          59.9840   88.5742   12.4899 C.3     1  UNL1        0.0722
@<TRIPOS>BOND
     1    16    17    1
     2    17    18   ar
     3    18    19   ar
     4    19    20   ar
     5    20    21   ar
     6    21    22   ar
     7    22    23    2
     8    22    24   ar
     9    24    15    1
    10    15     1    1
    11     1     2    2
    12     1     3   am
    13     3     4    1
    14     4     5    1
    15     5     6    1
    16     6     7    1
    17     7     9    1
    18     9    10   ar
    19    10    11   ar
    20    11    12   ar
    21    12    13   ar
    22    13    14   ar
    23     7     8    1
    24     8    29    1
    25    29    30    1
    26    30    31    1
    27    31    32    1
    28    32    33    1
    29    33    34    1
    30    24    25   ar
    31    25    26   ar
    32    26    27   ar
    33    27    28    1
    34    27    17   ar
    35    25    19   ar
    36     8     3    1
    37    34    30    1
    38    14     9   ar
@<TRIPOS>MOLECULE
*****
 34 38 0 0 0
SMALL
GASTEIGER

@<TRIPOS>ATOM
      1 C          63.8001   89.1825   13.5767 C.2     1  UNL1        0.2488
      2 O          64.5902   89.2925   14.8470 O.2     1  UNL1       -0.2728
      3 N          63.4856   87.8326   13.0035 N.am    1  UNL1       -0.2779
      4 C          63.9612   86.5924   13.7006 C.3     1  UNL1        0.0935
      5 C          63.6467   85.2424   13.1274 C.3     1  UNL1        0.0219
      6 C          62.8566   85.1325   11.8571 C.3     1  UNL1        0.0078
      7 C          62.3811   86.3726   11.1599 C.3     1  UNL1        0.0419
      8 C          62.6956   87.7226   11.7331 C.3     1  UNL1        0.0953
      9 C          61.5911   86.2627    9.8896 C.ar    1  UNL1       -0.0209
     10 C          62.1939   85.6003    8.6864 C.ar    1  UNL1       -0.0042
     11 C          61.4039   85.4903    7.4160 C.ar    1  UNL1       -0.0003
     12 C          60.0110   86.0428    7.3489 C.ar    1  UNL1       -0.0000
     13 C          59.4081   86.7053    8.5521 C.ar    1  UNL1       -0.0003
     14 C          60.1981   86.8152    9.8225 C.ar    1  UNL1       -0.0042
     15 C          63.3246   90.4227   12.8795 C.3     1  UNL1        0.1943
     16 C          68.2943   94.0538   15.9401 C.3     1  UNL1        0.0307
     17 C          67.3004   93.3891   15.0344 C.ar    1  UNL1       -0.0242
     18 C          67.3007   93.6966   13.5663 C.ar    1  UNL1        0.0160
     19 C          66.3068   93.0319   12.6605 C.ar    1  UNL1        0.0970
     20 N          66.3072   93.3395   11.1924 N.ar    1  UNL1       -0.2374
     21 C          65.3133   92.6748   10.2866 C.ar    1  UNL1        0.1595
     22 C          64.3191   91.7025   10.8490 C.ar    1  UNL1        0.2806
     23 O          63.3252   91.0378    9.9433 O.2     1  UNL1       -0.2652
     24 N          64.3188   91.3950   12.3171 N.ar    1  UNL1       -0.2839
     25 C          65.3127   92.0597   13.2229 C.ar    1  UNL1        0.0803
     26 C          65.3123   91.7521   14.6910 C.ar    1  UNL1        0.0142
     27 C          66.3062   92.4168   15.5967 C.ar    1  UNL1       -0.0243
     28 C          66.3059   92.1092   17.0649 C.3     1  UNL1        0.0307
     29 C          62.2201   88.9627   11.0360 C.3     1  UNL1        0.0924
     30 N          60.8791   89.5447   11.3722 N.3     1  UNL1       -0.2713
     31 C          59.9032   88.9929   12.3687 C.3     1  UNL1        0.0722
     32 C          58.6995   89.8878   12.3833 C.3     1  UNL1        0.0188
     33 C          58.9315   90.9929   11.3958 C.3     1  UNL1        0.0188
     34 C          60.2786   90.7808   10.7709 C.3     1  UNL1        0.0722
@<TRIPOS>BOND
     1    16    17    1
     2    17    18   ar
     3    18    19   ar
     4    19    20   ar
     5    20    21   ar
     6    21    22   ar
     7    22    23    2
     8    22    24   ar
     9    24    15    1
    10    15     1    1
    11     1     2    2
    12     1     3   am
    13     3     4    1
    14     4     5    1
    15     5     6    1
    16     6     7    1
    17     7     9    1
    18     9    10   ar
    19    10    11   ar
    20    11    12   ar
    21    12    13   ar
    22    13    14   ar
    23     7     8    1
    24     8    29    1
    25    29    30    1
    26    30    31    1
    27    31    32    1
    28    32    33    1
    29    33    34    1
    30    24    25   ar
    31    25    26   ar
    32    26    27   ar
    33    27    28    1
    34    27    17   ar
    35    25    19   ar
    36     8     3    1
    37    34    30    1
    38    14     9   ar
@<TRIPOS>MOLECULE
*****
 34 38 0 0 0
SMALL
GASTEIGER

@<TRIPOS>ATOM
      1 C          62.9189   90.2152   13.8206 C.2     1  UNL1        0.2488
      2 O          61.5195   89.7566   14.1061 O.2     1  UNL1       -0.2728
      3 N          63.7260   90.8762   14.8984 N.am    1  UNL1       -0.2779
      4 C          63.1339   91.0786   16.2616 C.3     1  UNL1        0.0935
      5 C          63.9410   91.7396   17.3394 C.3     1  UNL1        0.0219
      6 C          65.3404   92.1982   17.0539 C.3     1  UNL1        0.0078
      7 C          65.9325   91.9959   15.6907 C.3     1  UNL1        0.0419
      8 C          65.1254   91.3348   14.6129 C.3     1  UNL1        0.0953
      9 C          67.3319   92.4545   15.4053 C.ar    1  UNL1       -0.0209
     10 C          68.2071   91.6615   14.4806 C.ar    1  UNL1       -0.0042
     11 C          69.6065   92.1201   14.1952 C.ar    1  UNL1       -0.0003
     12 C          70.1306   93.3717   14.8344 C.ar    1  UNL1       -0.0000
     13 C          69.2553   94.1648   15.7591 C.ar    1  UNL1       -0.0003
     14 C          67.8560   93.7062   16.0446 C.ar    1  UNL1       -0.0042
     15 C          63.5111   90.0128   12.4574 C.3     1  UNL1        0.1943
     16 C          62.6437   83.2019   12.1271 C.3     1  UNL1        0.0307
     17 C          62.6823   84.6918   11.9576 C.ar    1  UNL1       -0.0242
     18 C          62.0082   85.3303   10.7795 C.ar    1  UNL1        0.0160
     19 C          62.0469   86.8202   10.6100 C.ar    1  UNL1        0.0970
     20 N          61.3727   87.4587    9.4319 N.ar    1  UNL1       -0.2374
     21 C          61.4113   88.9486    9.2623 C.ar    1  UNL1        0.1595
     22 C          62.1242   89.8000   10.2709 C.ar    1  UNL1        0.2806
     23 O          62.1628   91.2899   10.1013 O.2     1  UNL1       -0.2652
     24 N          62.7983   89.1615   11.4489 N.ar    1  UNL1       -0.2839
     25 C          62.7596   87.6716   11.6184 C.ar    1  UNL1        0.0803
     26 C          63.4338   87.0331   12.7965 C.ar    1  UNL1        0.0142
     27 C          63.3951   85.5432   12.9660 C.ar    1  UNL1       -0.0243
     28 C          64.0693   84.9047   14.1441 C.3     1  UNL1        0.0307
     29 C          65.7176   91.1325   13.2497 C.3     1  UNL1        0.0924
     30 N          65.8047   92.2832   12.2915 N.3     1  UNL1       -0.2713
     31 C          66.1382   93.7021   12.6456 C.3     1  UNL1        0.0722
     32 C          66.1132   94.5129   11.3838 C.3     1  UNL1        0.0188
     33 C          65.7643   93.5951   10.2499 C.3     1  UNL1        0.0188
     34 C          65.5736   92.2171   10.8109 C.3     1  UNL1        0.0722
@<TRIPOS>BOND
     1    16    17    1
     2    17    18   ar
     3    18    19   ar
     4    19    20   ar
     5    20    21   ar
     6    21    22   ar
     7    22    23    2
     8    22    24   ar
     9    24    15    1
    10    15     1    1
    11     1     2    2
    12     1     3   am
    13     3     4    1
    14     4     5    1
    15     5     6    1
    16     6     7    1
    17     7     9    1
    18     9    10   ar
    19    10    11   ar
    20    11    12   ar
    21    12    13   ar
    22    13    14   ar
    23     7     8    1
    24     8    29    1
    25    29    30    1
    26    30    31    1
    27    31    32    1
    28    32    33    1
    29    33    34    1
    30    24    25   ar
    31    25    26   ar
    32    26    27   ar
    33    27    28    1
    34    27    17   ar
    35    25    19   ar
    36     8     3    1
    37    34    30    1
    38    14     9   ar
@<TRIPOS>MOLECULE
*****
 34 38 0 0 0
SMALL
GASTEIGER

@<TRIPOS>ATOM
      1 C          61.8005   90.2161   11.7981 C.2     1  UNL1        0.2488
      2 O          60.9246   91.4211   11.6232 O.2     1  UNL1       -0.2728
      3 N          61.3610   88.8854   11.2633 N.am    1  UNL1       -0.2779
      4 C          60.0454   88.7597   10.5536 C.3     1  UNL1        0.0935
      5 C          59.6059   87.4290   10.0188 C.3     1  UNL1        0.0219
      6 C          60.4818   86.2239   10.1937 C.3     1  UNL1        0.0078
      7 C          61.7973   86.3496   10.9034 C.3     1  UNL1        0.0419
      8 C          62.2369   87.6803   11.4382 C.3     1  UNL1        0.0953
      9 C          62.6733   85.1445   11.0783 C.ar    1  UNL1       -0.0209
     10 C          63.4771   84.6275    9.9222 C.ar    1  UNL1       -0.0042
     11 C          64.3530   83.4224   10.0971 C.ar    1  UNL1       -0.0003
     12 C          64.4251   82.7344   11.4280 C.ar    1  UNL1       -0.0000
     13 C          63.6213   83.2515   12.5842 C.ar    1  UNL1       -0.0003
     14 C          62.7454   84.4566   12.4093 C.ar    1  UNL1       -0.0042
     15 C          63.1161   90.3417   12.5078 C.3     1  UNL1        0.1943
     16 C          67.9205   93.8775   15.9233 C.3     1  UNL1        0.0307
     17 C          66.9746   93.2405   14.9489 C.ar    1  UNL1       -0.0242
     18 C          67.0497   93.5909   13.4924 C.ar    1  UNL1        0.0160
     19 C          66.1038   92.9539   12.5180 C.ar    1  UNL1        0.0970
     20 N          66.1789   93.3044   11.0614 N.ar    1  UNL1       -0.2374
     21 C          65.2330   92.6673   10.0870 C.ar    1  UNL1        0.1595
     22 C          64.2120   91.6797   10.5692 C.ar    1  UNL1        0.2806
     23 O          63.2662   91.0427    9.5948 O.2     1  UNL1       -0.2652
     24 N          64.1370   91.3293   12.0257 N.ar    1  UNL1       -0.2839
     25 C          65.0829   91.9663   13.0001 C.ar    1  UNL1        0.0803
     26 C          65.0078   91.6159   14.4566 C.ar    1  UNL1        0.0142
     27 C          65.9537   92.2529   15.4310 C.ar    1  UNL1       -0.0243
     28 C          65.8786   91.9024   16.8876 C.3     1  UNL1        0.0307
     29 C          63.5524   87.8060   12.1479 C.3     1  UNL1        0.0924
     30 N          63.6406   87.5272   13.6191 N.3     1  UNL1       -0.2713
     31 C          64.0649   86.2329   14.2473 C.3     1  UNL1        0.0722
     32 C          64.0065   86.3995   15.7369 C.3     1  UNL1        0.0188
     33 C          63.5460   87.7968   16.0293 C.3     1  UNL1        0.0188
     34 C          63.3199   88.4937   14.7204 C.3     1  UNL1        0.0722
@<TRIPOS>BOND
     1    16    17    1
     2    17    18   ar
     3    18    19   ar
     4    19    20   ar
     5    20    21   ar
     6    21    22   ar
     7    22    23    2
     8    22    24   ar
     9    24    15    1
    10    15     1    1
    11     1     2    2
    12     1     3   am
    13     3     4    1
    14     4     5    1
    15     5     6    1
    16     6     7    1
    17     7     9    1
    18     9    10   ar
    19    10    11   ar
    20    11    12   ar
    21    12    13   ar
    22    13    14   ar
    23     7     8    1
    24     8    29    1
    25    29    30    1
    26    30    31    1
    27    31    32    1
    28    32    33    1
    29    33    34    1
    30    24    25   ar
    31    25    26   ar
    32    26    27   ar
    33    27    28    1
    34    27    17   ar
    35    25    19   ar
    36     8     3    1
    37    34    30    1
    38    14     9   ar
