@<TRIPOS>MOLECULE
*****
 35 39 0 0 0
SMALL
GASTEIGER

@<TRIPOS>ATOM
      1 C          63.3414   89.9267   13.1098 C.ar    1  UNL1        0.0874
      2 C          63.6159   91.1280   12.2546 C.ar    1  UNL1        0.0370
      3 C          64.8063   91.9953   12.5395 C.ar    1  UNL1        0.0860
      4 N          65.0808   93.1966   11.6843 N.ar    1  UNL1       -0.2239
      5 C          66.2711   94.0638   11.9692 C.ar    1  UNL1        0.1989
      6 N          67.1868   93.7297   13.1093 N.ar    1  UNL1       -0.2224
      7 C          66.9122   92.5283   13.9645 C.ar    1  UNL1        0.1022
      8 C          65.7220   91.6612   13.6796 C.ar    1  UNL1        0.0400
      9 C          65.4473   90.4598   14.5348 C.ar    1  UNL1        0.0412
     10 C          64.2571   89.5926   14.2499 C.ar    1  UNL1        0.1525
     11 O          62.7116   89.1232   10.2888 O.2     1  UNL1       -0.2521
     12 C          61.8362   88.6577   11.4145 C.2     1  UNL1        0.3082
     13 N          62.1511   89.0594   12.8249 N.am    1  UNL1       -0.2656
     14 N          60.6459   87.7905   11.1297 N.am    1  UNL1       -0.2681
     15 H          61.5765   88.7539   13.5637 H       1  UNL1        0.1565
     16 H          60.0714   87.4850   11.8685 H       1  UNL1        0.1564
     17 C          60.3310   87.3887    9.7191 C.ar    1  UNL1        0.0515
     18 C          59.1477   87.9848    9.0159 C.ar    1  UNL1        0.0147
     19 C          58.8328   87.5831    7.6055 C.ar    1  UNL1        0.0013
     20 C          59.7011   86.5852    6.8983 C.ar    1  UNL1        0.0001
     21 C          60.8844   85.9891    7.6015 C.ar    1  UNL1        0.0012
     22 C          61.7527   84.9912    6.8942 C.ar    1  UNL1        0.0000
     23 C          62.9360   84.3950    7.5974 C.ar    1  UNL1        0.0000
     24 C          63.2509   84.7968    9.0079 C.ar    1  UNL1        0.0000
     25 C          62.3826   85.7947    9.7151 C.ar    1  UNL1        0.0012
     26 C          61.1993   86.3908    9.0119 C.ar    1  UNL1        0.0135
     27 O          63.9825   88.3912   15.1052 O.3     1  UNL1       -0.4694
     28 C          64.6782   87.0931   14.8205 C.3     1  UNL1        0.2321
     29 C          63.8915   85.8173   14.7638 C.ar    1  UNL1        0.0220
     30 C          63.2924   85.2492   16.0161 C.ar    1  UNL1       -0.0006
     31 C          62.5057   83.9734   15.9594 C.ar    1  UNL1        0.0007
     32 C          62.3181   83.2655   14.6502 C.ar    1  UNL1        0.0114
     33 C          62.9171   83.8336   13.3979 C.ar    1  UNL1        0.0575
     34 CL         62.7295   83.1258   12.0888 Cl      1  UNL1       -0.0823
     35 C          63.7039   85.1095   13.4547 C.ar    1  UNL1        0.0107
@<TRIPOS>BOND
     1    11    12    2
     2    12    13   am
     3    13     1    1
     4     1     2   ar
     5     2     3   ar
     6     3     4   ar
     7     4     5   ar
     8     5     6   ar
     9     6     7   ar
    10     7     8   ar
    11     8     9   ar
    12     9    10   ar
    13    10    27    1
    14    27    28    1
    15    28    29    1
    16    29    30   ar
    17    30    31   ar
    18    31    32   ar
    19    32    33   ar
    20    33    34    1
    21    33    35   ar
    22    12    14   am
    23    14    17    1
    24    17    18   ar
    25    18    19   ar
    26    19    20   ar
    27    20    21   ar
    28    21    22   ar
    29    22    23   ar
    30    23    24   ar
    31    24    25   ar
    32    25    26   ar
    33    10     1   ar
    34    35    29   ar
    35    26    17   ar
    36     8     3   ar
    37    26    21   ar
    38    13    15    1
    39    14    16    1
@<TRIPOS>MOLECULE
*****
 35 39 0 0 0
SMALL
GASTEIGER

@<TRIPOS>ATOM
      1 C          62.5798   85.3091   11.7502 C.ar    1  UNL1        0.0874
      2 C          62.2082   84.5965   13.0167 C.ar    1  UNL1        0.0370
      3 C          62.3882   83.1110   13.1220 C.ar    1  UNL1        0.0860
      4 N          62.0166   82.3984   14.3885 N.ar    1  UNL1       -0.2239
      5 C          62.1966   80.9130   14.4938 C.ar    1  UNL1        0.1989
      6 N          62.7482   80.1402   13.3326 N.ar    1  UNL1       -0.2224
      7 C          63.1198   80.8528   12.0660 C.ar    1  UNL1        0.1022
      8 C          62.9398   82.3382   11.9608 C.ar    1  UNL1        0.0400
      9 C          63.3114   83.0508   10.6942 C.ar    1  UNL1        0.0412
     10 C          63.1314   84.5362   10.5889 C.ar    1  UNL1        0.1525
     11 O          64.0796   87.1365   13.5970 O.2     1  UNL1       -0.2521
     12 C          63.1497   87.7082   12.5682 C.2     1  UNL1        0.3082
     13 N          62.3998   86.7946   11.6448 N.am    1  UNL1       -0.2656
     14 N          62.9697   89.1936   12.4629 N.am    1  UNL1       -0.2681
     15 H          61.7894   87.1698   10.9696 H       1  UNL1        0.1565
     16 H          62.3593   89.5688   11.7877 H       1  UNL1        0.1564
     17 C          63.7196   90.1074   13.3863 C.ar    1  UNL1        0.0515
     18 C          63.6675   89.8834   14.8686 C.ar    1  UNL1        0.0147
     19 C          64.4174   90.7971   15.7920 C.ar    1  UNL1        0.0013
     20 C          65.2194   91.9348   15.2332 C.ar    1  UNL1        0.0001
     21 C          65.2715   92.1588   13.7509 C.ar    1  UNL1        0.0012
     22 C          66.0736   93.2966   13.1921 C.ar    1  UNL1        0.0000
     23 C          66.1257   93.5207   11.7098 C.ar    1  UNL1        0.0000
     24 C          65.3757   92.6069   10.7864 C.ar    1  UNL1        0.0000
     25 C          64.5737   91.4692   11.3452 C.ar    1  UNL1        0.0012
     26 C          64.5216   91.2451   12.8275 C.ar    1  UNL1        0.0135
     27 O          63.5029   85.2489    9.3223 O.3     1  UNL1       -0.4694
     28 C          62.5368   85.2935    8.1758 C.3     1  UNL1        0.2321
     29 C          61.3675   86.2322    8.2165 C.ar    1  UNL1        0.0220
     30 C          60.0933   85.8740    7.5107 C.ar    1  UNL1       -0.0006
     31 C          58.9240   86.8126    7.5513 C.ar    1  UNL1        0.0007
     32 C          59.0289   88.1095    8.2978 C.ar    1  UNL1        0.0114
     33 C          60.3031   88.4677    9.0036 C.ar    1  UNL1        0.0575
     34 CL         60.4080   89.7645    9.7500 Cl      1  UNL1       -0.0823
     35 C          61.4724   87.5290    8.9629 C.ar    1  UNL1        0.0107
@<TRIPOS>BOND
     1    11    12    2
     2    12    13   am
     3    13     1    1
     4     1     2   ar
     5     2     3   ar
     6     3     4   ar
     7     4     5   ar
     8     5     6   ar
     9     6     7   ar
    10     7     8   ar
    11     8     9   ar
    12     9    10   ar
    13    10    27    1
    14    27    28    1
    15    28    29    1
    16    29    30   ar
    17    30    31   ar
    18    31    32   ar
    19    32    33   ar
    20    33    34    1
    21    33    35   ar
    22    12    14   am
    23    14    17    1
    24    17    18   ar
    25    18    19   ar
    26    19    20   ar
    27    20    21   ar
    28    21    22   ar
    29    22    23   ar
    30    23    24   ar
    31    24    25   ar
    32    25    26   ar
    33    10     1   ar
    34    35    29   ar
    35    26    17   ar
    36     8     3   ar
    37    26    21   ar
    38    13    15    1
    39    14    16    1
@<TRIPOS>MOLECULE
*****
 35 39 0 0 0
SMALL
GASTEIGER

@<TRIPOS>ATOM
      1 C          61.9910   88.0428   11.3335 C.ar    1  UNL1        0.0874
      2 C          61.2516   88.8606   10.3164 C.ar    1  UNL1        0.0370
      3 C          60.5134   88.1816    9.2010 C.ar    1  UNL1        0.0860
      4 N          59.7741   88.9994    8.1839 N.ar    1  UNL1       -0.2239
      5 C          59.0359   88.3204    7.0686 C.ar    1  UNL1        0.1989
      6 N          59.0370   86.8236    6.9704 N.ar    1  UNL1       -0.2224
      7 C          59.7763   86.0058    7.9875 C.ar    1  UNL1        0.1022
      8 C          60.5145   86.6848    9.1028 C.ar    1  UNL1        0.0400
      9 C          61.2539   85.8670   10.1200 C.ar    1  UNL1        0.0412
     10 C          61.9921   86.5460   11.2354 C.ar    1  UNL1        0.1525
     11 O          63.5777   90.5295   10.7870 O.2     1  UNL1       -0.2521
     12 C          63.5225   89.9651   12.1756 C.2     1  UNL1        0.3082
     13 N          62.7292   88.7218   12.4490 N.am    1  UNL1       -0.2656
     14 N          64.2607   90.6440   13.2910 N.am    1  UNL1       -0.2681
     15 H          62.6930   88.3514   13.3604 H       1  UNL1        0.1565
     16 H          64.2245   90.2736   14.2024 H       1  UNL1        0.1564
     17 C          65.0541   91.8874   13.0177 C.ar    1  UNL1        0.0515
     18 C          64.8851   92.6140   11.7164 C.ar    1  UNL1        0.0147
     19 C          65.6784   93.8574   11.4431 C.ar    1  UNL1        0.0013
     20 C          66.6408   94.3740   12.4711 C.ar    1  UNL1        0.0001
     21 C          66.8098   93.6474   13.7724 C.ar    1  UNL1        0.0012
     22 C          67.7723   94.1641   14.8005 C.ar    1  UNL1        0.0000
     23 C          67.9413   93.4375   16.1018 C.ar    1  UNL1        0.0000
     24 C          67.1479   92.1941   16.3751 C.ar    1  UNL1        0.0000
     25 C          66.1855   91.6774   15.3471 C.ar    1  UNL1        0.0012
     26 C          66.0165   92.4041   14.0457 C.ar    1  UNL1        0.0135
     27 O          62.7315   85.7282   12.2526 O.3     1  UNL1       -0.4694
     28 C          63.4382   84.4727   11.8354 C.3     1  UNL1        0.2321
     29 C          63.0031   83.1480   12.3885 C.ar    1  UNL1        0.0220
     30 C          62.4658   83.0587   13.7861 C.ar    1  UNL1       -0.0006
     31 C          62.0308   81.7341   14.3392 C.ar    1  UNL1        0.0007
     32 C          62.1330   80.4986   13.4946 C.ar    1  UNL1        0.0114
     33 C          62.6703   80.5879   12.0970 C.ar    1  UNL1        0.0575
     34 CL         62.7725   79.3525   11.2524 Cl      1  UNL1       -0.0823
     35 C          63.1053   81.9126   11.5439 C.ar    1  UNL1        0.0107
@<TRIPOS>BOND
     1    11    12    2
     2    12    13   am
     3    13     1    1
     4     1     2   ar
     5     2     3   ar
     6     3     4   ar
     7     4     5   ar
     8     5     6   ar
     9     6     7   ar
    10     7     8   ar
    11     8     9   ar
    12     9    10   ar
    13    10    27    1
    14    27    28    1
    15    28    29    1
    16    29    30   ar
    17    30    31   ar
    18    31    32   ar
    19    32    33   ar
    20    33    34    1
    21    33    35   ar
    22    12    14   am
    23    14    17    1
    24    17    18   ar
    25    18    19   ar
    26    19    20   ar
    27    20    21   ar
    28    21    22   ar
    29    22    23   ar
    30    23    24   ar
    31    24    25   ar
    32    25    26   ar
    33    10     1   ar
    34    35    29   ar
    35    26    17   ar
    36     8     3   ar
    37    26    21   ar
    38    13    15    1
    39    14    16    1
@<TRIPOS>MOLECULE
*****
 35 39 0 0 0
SMALL
GASTEIGER

@<TRIPOS>ATOM
      1 C          63.2735   89.7790   12.3173 C.ar    1  UNL1        0.0874
      2 C          64.0147   90.1087   13.5790 C.ar    1  UNL1        0.0370
      3 C          64.9190   91.3045   13.6270 C.ar    1  UNL1        0.0860
      4 N          65.6602   91.6342   14.8886 N.ar    1  UNL1       -0.2239
      5 C          66.5645   92.8300   14.9366 C.ar    1  UNL1        0.1989
      6 N          66.7276   93.6961   13.7228 N.ar    1  UNL1       -0.2224
      7 C          65.9864   93.3664   12.4611 C.ar    1  UNL1        0.1022
      8 C          65.0821   92.1706   12.4132 C.ar    1  UNL1        0.0400
      9 C          64.3409   91.8409   11.1514 C.ar    1  UNL1        0.0412
     10 C          63.4366   90.6451   11.1035 C.ar    1  UNL1        0.1525
     11 O          64.2145   87.1425   13.3958 O.2     1  UNL1       -0.2521
     12 C          62.8396   87.2650   12.8086 C.2     1  UNL1        0.3082
     13 N          62.3691   88.5832   12.2693 N.am    1  UNL1       -0.2656
     14 N          61.9353   86.0692   12.7606 N.am    1  UNL1       -0.2681
     15 H          61.4668   88.6636   11.8840 H       1  UNL1        0.1565
     16 H          61.0329   86.1497   12.3752 H       1  UNL1        0.1564
     17 C          62.4058   84.7509   13.2998 C.ar    1  UNL1        0.0515
     18 C          62.2517   84.4394   14.7590 C.ar    1  UNL1        0.0147
     19 C          62.7221   83.1212   15.2983 C.ar    1  UNL1        0.0013
     20 C          63.3467   82.1144   14.3783 C.ar    1  UNL1        0.0001
     21 C          63.5007   82.4259   12.9191 C.ar    1  UNL1        0.0012
     22 C          64.1253   81.4190   11.9992 C.ar    1  UNL1        0.0000
     23 C          64.2794   81.7305   10.5400 C.ar    1  UNL1        0.0000
     24 C          63.8089   83.0489   10.0008 C.ar    1  UNL1        0.0000
     25 C          63.1844   84.0556   10.9207 C.ar    1  UNL1        0.0012
     26 C          63.0303   83.7441   12.3799 C.ar    1  UNL1        0.0135
     27 O          62.6953   90.3154    9.8418 O.3     1  UNL1       -0.4694
     28 C          61.2858   89.8070    9.9111 C.3     1  UNL1        0.2321
     29 C          60.9032   88.5552    9.1786 C.ar    1  UNL1        0.0220
     30 C          59.4907   88.3609    8.7126 C.ar    1  UNL1       -0.0006
     31 C          59.1081   87.1091    7.9802 C.ar    1  UNL1        0.0007
     32 C          60.1379   86.0515    7.7137 C.ar    1  UNL1        0.0114
     33 C          61.5504   86.2458    8.1796 C.ar    1  UNL1        0.0575
     34 CL         62.5803   85.1883    7.9131 Cl      1  UNL1       -0.0823
     35 C          61.9330   87.4977    8.9121 C.ar    1  UNL1        0.0107
@<TRIPOS>BOND
     1    11    12    2
     2    12    13   am
     3    13     1    1
     4     1     2   ar
     5     2     3   ar
     6     3     4   ar
     7     4     5   ar
     8     5     6   ar
     9     6     7   ar
    10     7     8   ar
    11     8     9   ar
    12     9    10   ar
    13    10    27    1
    14    27    28    1
    15    28    29    1
    16    29    30   ar
    17    30    31   ar
    18    31    32   ar
    19    32    33   ar
    20    33    34    1
    21    33    35   ar
    22    12    14   am
    23    14    17    1
    24    17    18   ar
    25    18    19   ar
    26    19    20   ar
    27    20    21   ar
    28    21    22   ar
    29    22    23   ar
    30    23    24   ar
    31    24    25   ar
    32    25    26   ar
    33    10     1   ar
    34    35    29   ar
    35    26    17   ar
    36     8     3   ar
    37    26    21   ar
    38    13    15    1
    39    14    16    1
@<TRIPOS>MOLECULE
*****
 35 39 0 0 0
SMALL
GASTEIGER

@<TRIPOS>ATOM
      1 C          63.3473   83.5787   12.4631 C.ar    1  UNL1        0.0874
      2 C          63.3928   82.7435   11.2180 C.ar    1  UNL1        0.0370
      3 C          63.1020   81.2736   11.2898 C.ar    1  UNL1        0.0860
      4 N          63.1474   80.4384   10.0447 N.ar    1  UNL1       -0.2239
      5 C          62.8566   78.9687   10.1166 C.ar    1  UNL1        0.1989
      6 N          62.5203   78.3341   11.4335 N.ar    1  UNL1       -0.2224
      7 C          62.4749   79.1694   12.6786 C.ar    1  UNL1        0.1022
      8 C          62.7657   80.6391   12.6068 C.ar    1  UNL1        0.0400
      9 C          62.7202   81.4745   13.8519 C.ar    1  UNL1        0.0412
     10 C          63.0110   82.9442   13.7800 C.ar    1  UNL1        0.1525
     11 O          61.3010   85.4593   11.3335 O.2     1  UNL1       -0.2521
     12 C          62.6150   85.9888   11.8265 C.2     1  UNL1        0.3082
     13 N          63.6381   85.0486   12.3913 N.am    1  UNL1       -0.2656
     14 N          62.9058   87.4586   11.7547 N.am    1  UNL1       -0.2681
     15 H          64.5005   85.3961   12.7148 H       1  UNL1        0.1565
     16 H          63.7682   87.8061   12.0782 H       1  UNL1        0.1564
     17 C          61.8826   88.3989   11.1899 C.ar    1  UNL1        0.0515
     18 C          61.5565   89.6734   11.9106 C.ar    1  UNL1        0.0147
     19 C          60.5334   90.6137   11.3459 C.ar    1  UNL1        0.0013
     20 C          59.8364   90.2796   10.0604 C.ar    1  UNL1        0.0001
     21 C          60.1625   89.0051    9.3397 C.ar    1  UNL1        0.0012
     22 C          59.4653   88.6710    8.0542 C.ar    1  UNL1        0.0000
     23 C          59.7914   87.3965    7.3334 C.ar    1  UNL1        0.0000
     24 C          60.8146   86.4562    7.8982 C.ar    1  UNL1        0.0000
     25 C          61.5117   86.7903    9.1837 C.ar    1  UNL1        0.0012
     26 C          61.1856   88.0648    9.9044 C.ar    1  UNL1        0.0135
     27 O          62.9656   83.7795   15.0251 O.3     1  UNL1       -0.4694
     28 C          64.1162   84.6791   15.3672 C.3     1  UNL1        0.2321
     29 C          63.8658   86.1144   15.7236 C.ar    1  UNL1        0.0220
     30 C          63.1018   86.4558   16.9685 C.ar    1  UNL1       -0.0006
     31 C          62.8515   87.8911   17.3250 C.ar    1  UNL1        0.0007
     32 C          63.3652   88.9852   16.4365 C.ar    1  UNL1        0.0114
     33 C          64.1292   88.6438   15.1916 C.ar    1  UNL1        0.0575
     34 CL         64.6429   89.7377   14.3032 Cl      1  UNL1       -0.0823
     35 C          64.3795   87.2083   14.8352 C.ar    1  UNL1        0.0107
@<TRIPOS>BOND
     1    11    12    2
     2    12    13   am
     3    13     1    1
     4     1     2   ar
     5     2     3   ar
     6     3     4   ar
     7     4     5   ar
     8     5     6   ar
     9     6     7   ar
    10     7     8   ar
    11     8     9   ar
    12     9    10   ar
    13    10    27    1
    14    27    28    1
    15    28    29    1
    16    29    30   ar
    17    30    31   ar
    18    31    32   ar
    19    32    33   ar
    20    33    34    1
    21    33    35   ar
    22    12    14   am
    23    14    17    1
    24    17    18   ar
    25    18    19   ar
    26    19    20   ar
    27    20    21   ar
    28    21    22   ar
    29    22    23   ar
    30    23    24   ar
    31    24    25   ar
    32    25    26   ar
    33    10     1   ar
    34    35    29   ar
    35    26    17   ar
    36     8     3   ar
    37    26    21   ar
    38    13    15    1
    39    14    16    1
@<TRIPOS>MOLECULE
*****
 35 39 0 0 0
SMALL
GASTEIGER

@<TRIPOS>ATOM
      1 C          62.8173   85.9761   11.7759 C.ar    1  UNL1        0.0874
      2 C          63.0922   85.1950   13.0266 C.ar    1  UNL1        0.0370
      3 C          63.1640   83.6976   12.9752 C.ar    1  UNL1        0.0860
      4 N          63.4389   82.9165   14.2259 N.ar    1  UNL1       -0.2239
      5 C          63.5107   81.4191   14.1745 C.ar    1  UNL1        0.1989
      6 N          63.3076   80.7028   12.8723 N.ar    1  UNL1       -0.2224
      7 C          63.0327   81.4839   11.6216 C.ar    1  UNL1        0.1022
      8 C          62.9609   82.9813   11.6730 C.ar    1  UNL1        0.0400
      9 C          62.6860   83.7624   10.4223 C.ar    1  UNL1        0.0412
     10 C          62.6142   85.2598   10.4737 C.ar    1  UNL1        0.1525
     11 O          63.9365   87.4514   14.1362 O.2     1  UNL1       -0.2521
     12 C          63.3051   88.2111   13.0075 C.2     1  UNL1        0.3082
     13 N          62.7455   87.4735   11.8273 N.am    1  UNL1       -0.2656
     14 N          63.2333   89.7085   13.0588 N.am    1  UNL1       -0.2681
     15 H          62.3312   87.9722   11.0865 H       1  UNL1        0.1565
     16 H          62.8189   90.2071   12.3180 H       1  UNL1        0.1564
     17 C          63.7928   90.4462   14.2390 C.ar    1  UNL1        0.0515
     18 C          63.2175   90.2209   15.6059 C.ar    1  UNL1        0.0147
     19 C          63.7770   90.9586   16.7860 C.ar    1  UNL1        0.0013
     20 C          64.9118   91.9215   16.5993 C.ar    1  UNL1        0.0001
     21 C          65.4872   92.1467   15.2325 C.ar    1  UNL1        0.0012
     22 C          66.6221   93.1097   15.0459 C.ar    1  UNL1        0.0000
     23 C          67.1974   93.3349   13.6790 C.ar    1  UNL1        0.0000
     24 C          66.6379   92.5972   12.4988 C.ar    1  UNL1        0.0000
     25 C          65.5030   91.6343   12.6855 C.ar    1  UNL1        0.0012
     26 C          64.9277   91.4091   14.0523 C.ar    1  UNL1        0.0135
     27 O          62.3393   86.0409    9.2230 O.3     1  UNL1       -0.4694
     28 C          60.9886   86.6555    9.0042 C.3     1  UNL1        0.2321
     29 C          60.5965   87.8922    9.7571 C.ar    1  UNL1        0.0220
     30 C          61.0725   89.2363    9.2915 C.ar    1  UNL1       -0.0006
     31 C          60.6804   90.4729   10.0444 C.ar    1  UNL1        0.0007
     32 C          59.8122   90.3655   11.2629 C.ar    1  UNL1        0.0114
     33 C          59.3362   89.0214   11.7285 C.ar    1  UNL1        0.0575
     34 CL         58.4681   88.9140   12.9470 Cl      1  UNL1       -0.0823
     35 C          59.7284   87.7847   10.9756 C.ar    1  UNL1        0.0107
@<TRIPOS>BOND
     1    11    12    2
     2    12    13   am
     3    13     1    1
     4     1     2   ar
     5     2     3   ar
     6     3     4   ar
     7     4     5   ar
     8     5     6   ar
     9     6     7   ar
    10     7     8   ar
    11     8     9   ar
    12     9    10   ar
    13    10    27    1
    14    27    28    1
    15    28    29    1
    16    29    30   ar
    17    30    31   ar
    18    31    32   ar
    19    32    33   ar
    20    33    34    1
    21    33    35   ar
    22    12    14   am
    23    14    17    1
    24    17    18   ar
    25    18    19   ar
    26    19    20   ar
    27    20    21   ar
    28    21    22   ar
    29    22    23   ar
    30    23    24   ar
    31    24    25   ar
    32    25    26   ar
    33    10     1   ar
    34    35    29   ar
    35    26    17   ar
    36     8     3   ar
    37    26    21   ar
    38    13    15    1
    39    14    16    1
@<TRIPOS>MOLECULE
*****
 35 39 0 0 0
SMALL
GASTEIGER

@<TRIPOS>ATOM
      1 C          63.8434   88.8516   13.8137 C.ar    1  UNL1        0.0874
      2 C          64.9910   89.4742   14.5521 C.ar    1  UNL1        0.0370
      3 C          65.4616   90.8502   14.1843 C.ar    1  UNL1        0.0860
      4 N          66.6092   91.4728   14.9227 N.ar    1  UNL1       -0.2239
      5 C          67.0796   92.8487   14.5548 C.ar    1  UNL1        0.1989
      6 N          66.4025   93.6021   13.4485 N.ar    1  UNL1       -0.2224
      7 C          65.2549   92.9795   12.7101 C.ar    1  UNL1        0.1022
      8 C          64.7844   91.6035   13.0780 C.ar    1  UNL1        0.0400
      9 C          63.6367   90.9809   12.3395 C.ar    1  UNL1        0.0412
     10 C          63.1663   89.6049   12.7074 C.ar    1  UNL1        0.1525
     11 O          64.1047   86.6012   11.8471 O.2     1  UNL1       -0.2521
     12 C          63.5036   86.3504   13.1983 C.2     1  UNL1        0.3082
     13 N          63.3729   87.4755   14.1816 N.am    1  UNL1       -0.2656
     14 N          63.0331   84.9745   13.5662 N.am    1  UNL1       -0.2681
     15 H          62.9783   87.3109   15.0684 H       1  UNL1        0.1565
     16 H          62.6385   84.8099   14.4530 H       1  UNL1        0.1564
     17 C          63.1637   83.8492   12.5828 C.ar    1  UNL1        0.0515
     18 C          63.7738   84.0979   11.2353 C.ar    1  UNL1        0.0147
     19 C          63.9045   82.9727   10.2520 C.ar    1  UNL1        0.0013
     20 C          63.4250   81.5989   10.6162 C.ar    1  UNL1        0.0001
     21 C          62.8149   81.3503   11.9638 C.ar    1  UNL1        0.0012
     22 C          62.3355   79.9764   12.3280 C.ar    1  UNL1        0.0000
     23 C          61.7253   79.7277   13.6756 C.ar    1  UNL1        0.0000
     24 C          61.5947   80.8530   14.6589 C.ar    1  UNL1        0.0000
     25 C          62.0741   82.2268   14.2947 C.ar    1  UNL1        0.0012
     26 C          62.6843   82.4754   12.9471 C.ar    1  UNL1        0.0135
     27 O          62.0186   88.9823   11.9690 O.3     1  UNL1       -0.4694
     28 C          61.8367   89.2482   10.5040 C.3     1  UNL1        0.2321
     29 C          61.3448   88.1576    9.5992 C.ar    1  UNL1        0.0220
     30 C          59.9094   88.1342    9.1644 C.ar    1  UNL1       -0.0006
     31 C          59.4175   87.0436    8.2596 C.ar    1  UNL1        0.0007
     32 C          60.3610   85.9764    7.7896 C.ar    1  UNL1        0.0114
     33 C          61.7964   85.9998    8.2244 C.ar    1  UNL1        0.0575
     34 CL         62.7399   84.9327    7.7544 Cl      1  UNL1       -0.0823
     35 C          62.2883   87.0904    9.1292 C.ar    1  UNL1        0.0107
@<TRIPOS>BOND
     1    11    12    2
     2    12    13   am
     3    13     1    1
     4     1     2   ar
     5     2     3   ar
     6     3     4   ar
     7     4     5   ar
     8     5     6   ar
     9     6     7   ar
    10     7     8   ar
    11     8     9   ar
    12     9    10   ar
    13    10    27    1
    14    27    28    1
    15    28    29    1
    16    29    30   ar
    17    30    31   ar
    18    31    32   ar
    19    32    33   ar
    20    33    34    1
    21    33    35   ar
    22    12    14   am
    23    14    17    1
    24    17    18   ar
    25    18    19   ar
    26    19    20   ar
    27    20    21   ar
    28    21    22   ar
    29    22    23   ar
    30    23    24   ar
    31    24    25   ar
    32    25    26   ar
    33    10     1   ar
    34    35    29   ar
    35    26    17   ar
    36     8     3   ar
    37    26    21   ar
    38    13    15    1
    39    14    16    1
