@<TRIPOS>MOLECULE
*****
 40 44 0 0 0
SMALL
GASTEIGER

@<TRIPOS>ATOM
      1 C          62.3877   83.4409   15.5734 C.3     1  UNL1        0.0543
      2 C          62.5377   84.8100   16.1677 C.ar    1  UNL1        0.0884
      3 N          62.1311   85.2196   17.5522 N.ar    1  UNL1       -0.1507
      4 N          62.4627   86.6726   17.7219 N.ar    1  UNL1       -0.1305
      5 C          63.0741   87.1610   16.4422 C.ar    1  UNL1        0.1688
      6 N          63.5946   88.5053   16.0276 N.ar    1  UNL1       -0.3223
      7 C          64.1615   88.6984   14.6523 C.ar    1  UNL1        0.1447
      8 N          64.2079   87.5473   13.6918 N.ar    1  UNL1       -0.1943
      9 C          63.6873   86.2030   14.1064 C.ar    1  UNL1        0.2301
     10 C          63.1204   86.0099   15.4817 C.ar    1  UNL1        0.1041
     11 H          63.5642   89.2609   16.6580 H       1  UNL1        0.1688
     12 C          64.6821   90.0427   14.2377 C.ar    1  UNL1        0.0342
     13 C          65.8573   90.6441   14.9496 C.ar    1  UNL1        0.0043
     14 C          66.3779   91.9885   14.5350 C.ar    1  UNL1        0.0160
     15 C          65.7230   92.7313   13.4083 C.ar    1  UNL1        0.0648
     16 C          64.5477   92.1299   12.6963 C.ar    1  UNL1        0.0160
     17 C          64.0272   90.7856   13.1110 C.ar    1  UNL1        0.0043
     18 N          66.2435   94.0756   12.9936 N.pl3   1  UNL1       -0.2149
     19 H          66.4222   94.7653   13.6731 H       1  UNL1        0.1737
     20 S          66.4918   94.3691   11.5437 S.O2    1  UNL1        0.0758
     21 O          66.7394   92.9114   11.2911 O.2     1  UNL1       -0.1499
     22 O          66.2442   95.8268   11.7964 O.2     1  UNL1       -0.1499
     23 C          66.7402   94.6625   10.0938 C.ar    1  UNL1        0.1533
     24 C          65.8435   95.6124    9.3565 C.ar    1  UNL1        0.0339
     25 C          66.0919   95.9058    7.9066 C.ar    1  UNL1        0.0592
     26 CL         65.1953   96.8557    7.1693 Cl      1  UNL1       -0.0822
     27 C          67.2369   95.2492    7.1940 C.ar    1  UNL1        0.0138
     28 C          68.1336   94.2993    7.9313 C.ar    1  UNL1        0.0319
     29 C          67.8852   94.0059    9.3812 C.ar    1  UNL1        0.1589
     30 F          68.7819   93.0560   10.1186 F       1  UNL1       -0.2027
     31 O          63.7337   85.0518   13.1458 O.3     1  UNL1       -0.4638
     32 C          63.0999   85.1786   11.7922 C.3     1  UNL1        0.1703
     33 C          63.6073   84.3543   10.6463 C.3     1  UNL1        0.0609
     34 C          62.9734   84.4811    9.2927 C.3     1  UNL1        0.0758
     35 N          61.8322   85.4322    9.0851 N.3     1  UNL1       -0.2737
     36 C          61.3249   86.2564   10.2310 C.3     1  UNL1        0.0758
     37 C          61.9587   86.1296   11.5846 C.3     1  UNL1        0.0609
     38 C          61.1984   85.5589    7.7314 C.3     1  UNL1        0.0576
     39 C          59.9629   86.3913    7.5567 C.3     1  UNL1        0.0173
     40 C          61.8003   84.8532    6.5526 C.3     1  UNL1        0.0173
@<TRIPOS>BOND
     1     1     2    1
     2     2     3   ar
     3     3     4   ar
     4     4     5   ar
     5     5     6   ar
     6     6     7   ar
     7     7    12    1
     8    12    13   ar
     9    13    14   ar
    10    14    15   ar
    11    15    18    1
    12    18    20    1
    13    20    21    2
    14    20    22    2
    15    20    23    1
    16    23    24   ar
    17    24    25   ar
    18    25    26    1
    19    25    27   ar
    20    27    28   ar
    21    28    29   ar
    22    29    30    1
    23    15    16   ar
    24    16    17   ar
    25     7     8   ar
    26     8     9   ar
    27     9    31    1
    28    31    32    1
    29    32    33    1
    30    33    34    1
    31    34    35    1
    32    35    38    1
    33    38    39    1
    34    38    40    1
    35    35    36    1
    36    36    37    1
    37     9    10   ar
    38    10     2   ar
    39    10     5    1
    40    17    12   ar
    41    37    32    1
    42    29    23   ar
    43     6    11    1
    44    18    19    1
@<TRIPOS>MOLECULE
*****
 40 44 0 0 0
SMALL
GASTEIGER

@<TRIPOS>ATOM
      1 C          61.2538   86.7232   11.9264 C.3     1  UNL1        0.0543
      2 C          60.9941   86.5786   10.4562 C.ar    1  UNL1        0.0884
      3 N          60.9851   85.2922    9.6848 N.ar    1  UNL1       -0.1507
      4 N          60.6832   85.6135    8.2510 N.ar    1  UNL1       -0.1305
      5 C          60.5056   87.0985    8.1363 C.ar    1  UNL1        0.1688
      6 N          60.1937   87.9847    6.9670 N.ar    1  UNL1       -0.3223
      7 C          60.0740   89.4673    7.1605 C.ar    1  UNL1        0.1447
      8 N          60.2662   90.0638    8.5232 N.ar    1  UNL1       -0.1943
      9 C          60.5780   89.1776    9.6926 C.ar    1  UNL1        0.2301
     10 C          60.6977   87.6949    9.4991 C.ar    1  UNL1        0.1041
     11 H          60.0676   87.5932    6.0725 H       1  UNL1        0.1688
     12 C          59.7621   90.3535    5.9910 C.ar    1  UNL1        0.0342
     13 C          58.3424   90.7408    5.7011 C.ar    1  UNL1        0.0043
     14 C          58.0305   91.6270    4.5317 C.ar    1  UNL1        0.0160
     15 C          59.1385   92.1258    3.6522 C.ar    1  UNL1        0.0648
     16 C          60.5584   91.7384    3.9421 C.ar    1  UNL1        0.0160
     17 C          60.8702   90.8523    5.1115 C.ar    1  UNL1        0.0043
     18 N          58.8267   93.0119    2.4828 N.pl3   1  UNL1       -0.2149
     19 H          57.8943   93.2614    2.2890 H       1  UNL1        0.1737
     20 S          59.9356   93.5181    1.6086 S.O2    1  UNL1        0.0758
     21 O          60.1319   94.6835    2.5324 O.2     1  UNL1       -0.1499
     22 O          59.7394   92.3527    0.6849 O.2     1  UNL1       -0.1499
     23 C          61.0446   94.0243    0.7345 C.ar    1  UNL1        0.1533
     24 C          62.4615   93.6150    1.0080 C.ar    1  UNL1        0.0339
     25 C          63.5703   94.1213    0.1338 C.ar    1  UNL1        0.0592
     26 CL         64.9873   93.7121    0.4073 Cl      1  UNL1       -0.0822
     27 C          63.2622   95.0368   -1.0138 C.ar    1  UNL1        0.0138
     28 C          61.8453   95.4460   -1.2873 C.ar    1  UNL1        0.0319
     29 C          60.7365   94.9398   -0.4131 C.ar    1  UNL1        0.1589
     30 F          59.3194   95.3490   -0.6866 F       1  UNL1       -0.2027
     31 O          60.7702   89.7741   11.0555 O.3     1  UNL1       -0.4638
     32 C          62.0940   90.3693   11.4338 C.3     1  UNL1        0.1703
     33 C          62.6408   90.1652   12.8156 C.3     1  UNL1        0.0609
     34 C          63.9646   90.7605   13.1938 C.3     1  UNL1        0.0758
     35 N          64.7417   91.5598   12.1902 N.3     1  UNL1       -0.2737
     36 C          64.1949   91.7639   10.8084 C.3     1  UNL1        0.0758
     37 C          62.8711   91.1687   10.4302 C.3     1  UNL1        0.0609
     38 C          66.0656   92.1551   12.5686 C.3     1  UNL1        0.0576
     39 C          66.9373   92.7749   11.5170 C.3     1  UNL1        0.0173
     40 C          66.5177   92.1304   13.9986 C.3     1  UNL1        0.0173
@<TRIPOS>BOND
     1     1     2    1
     2     2     3   ar
     3     3     4   ar
     4     4     5   ar
     5     5     6   ar
     6     6     7   ar
     7     7    12    1
     8    12    13   ar
     9    13    14   ar
    10    14    15   ar
    11    15    18    1
    12    18    20    1
    13    20    21    2
    14    20    22    2
    15    20    23    1
    16    23    24   ar
    17    24    25   ar
    18    25    26    1
    19    25    27   ar
    20    27    28   ar
    21    28    29   ar
    22    29    30    1
    23    15    16   ar
    24    16    17   ar
    25     7     8   ar
    26     8     9   ar
    27     9    31    1
    28    31    32    1
    29    32    33    1
    30    33    34    1
    31    34    35    1
    32    35    38    1
    33    38    39    1
    34    38    40    1
    35    35    36    1
    36    36    37    1
    37     9    10   ar
    38    10     2   ar
    39    10     5    1
    40    17    12   ar
    41    37    32    1
    42    29    23   ar
    43     6    11    1
    44    18    19    1
@<TRIPOS>MOLECULE
*****
 40 44 0 0 0
SMALL
GASTEIGER

@<TRIPOS>ATOM
      1 C          66.7798   92.9036   16.4229 C.3     1  UNL1        0.0543
      2 C          65.4938   92.1436   16.2861 C.ar    1  UNL1        0.0884
      3 N          64.6222   91.6752   17.4134 N.ar    1  UNL1       -0.1507
      4 N          63.4433   90.9607   16.8220 N.ar    1  UNL1       -0.1305
      5 C          63.5864   90.9875   15.3291 C.ar    1  UNL1        0.1688
      6 N          62.7264   90.4407   14.2284 N.ar    1  UNL1       -0.3223
      7 C          63.1337   90.6249   12.7966 C.ar    1  UNL1        0.1447
      8 N          64.4008   91.3559   12.4654 N.ar    1  UNL1       -0.1943
      9 C          65.2609   91.9028   13.5660 C.ar    1  UNL1        0.2301
     10 C          64.8536   91.7186   14.9979 C.ar    1  UNL1        0.1041
     11 H          61.8947   89.9609   14.4458 H       1  UNL1        0.1688
     12 C          62.2736   90.0780   11.6959 C.ar    1  UNL1        0.0342
     13 C          60.7802   90.1823   11.7889 C.ar    1  UNL1        0.0043
     14 C          59.9202   89.6354   10.6882 C.ar    1  UNL1        0.0160
     15 C          60.5537   88.9843    9.4947 C.ar    1  UNL1        0.0648
     16 C          62.0472   88.8800    9.4017 C.ar    1  UNL1        0.0160
     17 C          62.9072   89.4269   10.5024 C.ar    1  UNL1        0.0043
     18 N          59.6938   88.4374    8.3940 N.pl3   1  UNL1       -0.2149
     19 H          59.3919   87.5008    8.4244 H       1  UNL1        0.1737
     20 S          59.2937   89.3176    7.2472 S.O2    1  UNL1        0.0758
     21 O          58.9413   88.1041    6.4388 O.2     1  UNL1       -0.1499
     22 O          59.6461   90.5310    8.0555 O.2     1  UNL1       -0.1499
     23 C          58.8936   90.1976    6.1002 C.ar    1  UNL1        0.1533
     24 C          59.9450   90.8773    5.2741 C.ar    1  UNL1        0.0339
     25 C          59.5448   91.7574    4.1272 C.ar    1  UNL1        0.0592
     26 CL         60.5961   92.4371    3.3010 Cl      1  UNL1       -0.0822
     27 C          58.0933   91.9577    3.8065 C.ar    1  UNL1        0.0138
     28 C          57.0418   91.2780    4.6326 C.ar    1  UNL1        0.0319
     29 C          57.4420   90.3979    5.7795 C.ar    1  UNL1        0.1589
     30 F          56.3906   89.7182    6.6057 F       1  UNL1       -0.2027
     31 O          66.5281   92.6338   13.2347 O.3     1  UNL1       -0.4638
     32 C          66.5745   93.5570   12.0535 C.3     1  UNL1        0.1703
     33 C          66.1529   94.9887   12.2034 C.3     1  UNL1        0.0609
     34 C          66.1993   95.9119   11.0220 C.3     1  UNL1        0.0758
     35 N          66.6673   95.4033    9.6907 N.3     1  UNL1       -0.2737
     36 C          67.0888   93.9716    9.5408 C.3     1  UNL1        0.0758
     37 C          67.0424   93.0485   10.7221 C.3     1  UNL1        0.0609
     38 C          66.7136   96.3266    8.5093 C.3     1  UNL1        0.0576
     39 C          68.0342   96.7232    7.9187 C.3     1  UNL1        0.0173
     40 C          65.4393   96.8532    7.9187 C.3     1  UNL1        0.0173
@<TRIPOS>BOND
     1     1     2    1
     2     2     3   ar
     3     3     4   ar
     4     4     5   ar
     5     5     6   ar
     6     6     7   ar
     7     7    12    1
     8    12    13   ar
     9    13    14   ar
    10    14    15   ar
    11    15    18    1
    12    18    20    1
    13    20    21    2
    14    20    22    2
    15    20    23    1
    16    23    24   ar
    17    24    25   ar
    18    25    26    1
    19    25    27   ar
    20    27    28   ar
    21    28    29   ar
    22    29    30    1
    23    15    16   ar
    24    16    17   ar
    25     7     8   ar
    26     8     9   ar
    27     9    31    1
    28    31    32    1
    29    32    33    1
    30    33    34    1
    31    34    35    1
    32    35    38    1
    33    38    39    1
    34    38    40    1
    35    35    36    1
    36    36    37    1
    37     9    10   ar
    38    10     2   ar
    39    10     5    1
    40    17    12   ar
    41    37    32    1
    42    29    23   ar
    43     6    11    1
    44    18    19    1
@<TRIPOS>MOLECULE
*****
 40 44 0 0 0
SMALL
GASTEIGER

@<TRIPOS>ATOM
      1 C          59.9873   84.9086    7.3732 C.3     1  UNL1        0.0543
      2 C          59.8198   86.3615    7.7063 C.ar    1  UNL1        0.0884
      3 N          58.6327   87.2130    7.3661 N.ar    1  UNL1       -0.1507
      4 N          58.8893   88.5958    7.8877 N.ar    1  UNL1       -0.1305
      5 C          60.2350   88.5990    8.5503 C.ar    1  UNL1        0.1688
      6 N          61.0109   89.6808    9.2413 N.ar    1  UNL1       -0.3223
      7 C          62.3620   89.3818    9.8202 C.ar    1  UNL1        0.1447
      8 N          62.9371   88.0011    9.7081 N.ar    1  UNL1       -0.1943
      9 C          62.1612   86.9191    9.0171 C.ar    1  UNL1        0.2301
     10 C          60.8101   87.2181    8.4382 C.ar    1  UNL1        0.1041
     11 H          60.6335   90.5871    9.3149 H       1  UNL1        0.1688
     12 C          63.1380   90.4637   10.5112 C.ar    1  UNL1        0.0342
     13 C          63.6830   91.6169    9.7218 C.ar    1  UNL1        0.0043
     14 C          64.4589   92.6988   10.4128 C.ar    1  UNL1        0.0160
     15 C          64.6899   92.6274   11.8932 C.ar    1  UNL1        0.0648
     16 C          64.1449   91.4742   12.6826 C.ar    1  UNL1        0.0160
     17 C          63.3690   90.3924   11.9915 C.ar    1  UNL1        0.0043
     18 N          65.4658   93.7093   12.5842 N.pl3   1  UNL1       -0.2149
     19 H          65.2938   94.6540   12.3669 H       1  UNL1        0.1737
     20 S          66.5039   93.3518   13.6063 S.O2    1  UNL1        0.0758
     21 O          67.4151   92.8755   12.5142 O.2     1  UNL1       -0.1499
     22 O          65.5926   93.8281   14.6984 O.2     1  UNL1       -0.1499
     23 C          67.5420   92.9943   14.6283 C.ar    1  UNL1        0.1533
     24 C          68.5325   94.0247   15.0834 C.ar    1  UNL1        0.0339
     25 C          69.5706   93.6671   16.1054 C.ar    1  UNL1        0.0592
     26 CL         70.5612   94.6974   16.5605 Cl      1  UNL1       -0.0822
     27 C          69.6181   92.2792   16.6723 C.ar    1  UNL1        0.0138
     28 C          68.6276   91.2488   16.2173 C.ar    1  UNL1        0.0319
     29 C          67.5895   91.6064   15.1953 C.ar    1  UNL1        0.1589
     30 F          66.5989   90.5760   14.7401 F       1  UNL1       -0.2027
     31 O          62.7364   85.5383    8.9050 O.3     1  UNL1       -0.4638
     32 C          62.9622   84.7174   10.1400 C.3     1  UNL1        0.1703
     33 C          63.8292   83.4948   10.0798 C.3     1  UNL1        0.0609
     34 C          64.0550   82.6740   11.3148 C.3     1  UNL1        0.0758
     35 N          63.4139   83.0758   12.6100 N.3     1  UNL1       -0.2737
     36 C          62.5470   84.2985   12.6702 C.3     1  UNL1        0.0758
     37 C          62.3211   85.1193   11.4352 C.3     1  UNL1        0.0609
     38 C          63.6398   82.2549   13.8450 C.3     1  UNL1        0.0576
     39 C          63.4417   80.7686   13.8044 C.3     1  UNL1        0.0173
     40 C          64.0639   82.9204   15.1207 C.3     1  UNL1        0.0173
@<TRIPOS>BOND
     1     1     2    1
     2     2     3   ar
     3     3     4   ar
     4     4     5   ar
     5     5     6   ar
     6     6     7   ar
     7     7    12    1
     8    12    13   ar
     9    13    14   ar
    10    14    15   ar
    11    15    18    1
    12    18    20    1
    13    20    21    2
    14    20    22    2
    15    20    23    1
    16    23    24   ar
    17    24    25   ar
    18    25    26    1
    19    25    27   ar
    20    27    28   ar
    21    28    29   ar
    22    29    30    1
    23    15    16   ar
    24    16    17   ar
    25     7     8   ar
    26     8     9   ar
    27     9    31    1
    28    31    32    1
    29    32    33    1
    30    33    34    1
    31    34    35    1
    32    35    38    1
    33    38    39    1
    34    38    40    1
    35    35    36    1
    36    36    37    1
    37     9    10   ar
    38    10     2   ar
    39    10     5    1
    40    17    12   ar
    41    37    32    1
    42    29    23   ar
    43     6    11    1
    44    18    19    1
