@<TRIPOS>MOLECULE
*****
 26 28 0 0 0
SMALL
GASTEIGER

@<TRIPOS>ATOM
      1 C          62.6117   89.4832   10.8199 C.ar    1  UNL1        0.0070
      2 C          63.0399   90.7079   10.0671 C.ar    1  UNL1       -0.0017
      3 C          63.9541   91.7051   10.7150 C.ar    1  UNL1       -0.0001
      4 C          64.4401   91.4776   12.1157 C.ar    1  UNL1        0.0030
      5 C          65.3543   92.4749   12.7637 C.ar    1  UNL1        0.0371
      6 C          65.8403   92.2473   14.1644 C.ar    1  UNL1        0.1443
      7 C          65.4121   91.0226   14.9172 C.ar    1  UNL1        0.0371
      8 C          64.4979   90.0254   14.2693 C.ar    1  UNL1        0.0031
      9 C          64.0119   90.2529   12.8685 C.ar    1  UNL1       -0.0000
     10 C          63.0977   89.2557   12.2206 C.ar    1  UNL1       -0.0017
     11 C          61.6975   88.4860   10.1719 C.3     1  UNL1        0.1426
     12 O          62.8408   87.9736    9.3472 O.3     1  UNL1       -0.3770
     13 H          62.6830   88.1793    8.4125 H       1  UNL1        0.2112
     14 C          60.5542   88.9984   10.9966 C.ar    1  UNL1        0.1019
     15 C          59.9556   90.3715   10.9173 C.ar    1  UNL1        0.1404
     16 N          58.8401   90.4494   11.9172 N.ar    1  UNL1       -0.1276
     17 N          58.7492   89.1244   12.6144 N.ar    1  UNL1       -0.0674
     18 N          59.8085   88.2276   12.0455 N.ar    1  UNL1       -0.2579
     19 H          59.9837   87.2966   12.3135 H       1  UNL1        0.1904
     20 C          59.7147   87.9538    8.5796 C.3     1  UNL1        0.0031
     21 C          60.7833   87.4888    9.5241 C.3     1  UNL1        0.0340
     22 C          60.9376   86.0265    9.8206 C.3     1  UNL1        0.0031
     23 O          66.7545   93.2445   14.8123 O.3     1  UNL1       -0.4236
     24 C          68.0193   92.7833   15.4739 C.3     1  UNL1        0.5087
     25 F          69.3372   92.9640   14.7808 F       1  UNL1       -0.1550
     26 F          67.9662   92.1414   16.8286 F       1  UNL1       -0.1550
@<TRIPOS>BOND
     1    20    21    1
     2    21    22    1
     3    21    11    1
     4    11    12    1
     5    11     1    1
     6     1     2   ar
     7     2     3   ar
     8     3     4   ar
     9     4     5   ar
    10     5     6   ar
    11     6    23    1
    12    23    24    1
    13    24    25    1
    14    24    26    1
    15     6     7   ar
    16     7     8   ar
    17     8     9   ar
    18     9    10   ar
    19    11    14    1
    20    14    15   ar
    21    15    16   ar
    22    16    17   ar
    23    17    18   ar
    24    10     1   ar
    25    18    14   ar
    26     9     4   ar
    27    12    13    1
    28    18    19    1
@<TRIPOS>MOLECULE
*****
 26 28 0 0 0
SMALL
GASTEIGER

@<TRIPOS>ATOM
      1 C          62.6376   89.3767   11.0272 C.ar    1  UNL1        0.0070
      2 C          62.9461   88.9379   12.4280 C.ar    1  UNL1       -0.0017
      3 C          63.8814   89.7456   13.2781 C.ar    1  UNL1       -0.0001
      4 C          64.5083   90.9921   12.7273 C.ar    1  UNL1        0.0030
      5 C          65.4437   91.7998   13.5775 C.ar    1  UNL1        0.0371
      6 C          66.0706   93.0463   13.0268 C.ar    1  UNL1        0.1443
      7 C          65.7621   93.4851   11.6259 C.ar    1  UNL1        0.0371
      8 C          64.8267   92.6773   10.7758 C.ar    1  UNL1        0.0031
      9 C          64.1998   91.4309   11.3265 C.ar    1  UNL1       -0.0000
     10 C          63.2645   90.6231   10.4765 C.ar    1  UNL1       -0.0017
     11 C          61.7022   88.5689   10.1770 C.3     1  UNL1        0.1426
     12 O          62.8593   88.1096    9.3403 O.3     1  UNL1       -0.3770
     13 H          62.7758   88.4740    8.4452 H       1  UNL1        0.2112
     14 C          60.5452   89.0283   11.0138 C.ar    1  UNL1        0.1019
     15 C          59.9516   90.4058   11.0173 C.ar    1  UNL1        0.1404
     16 N          58.8180   90.4197   11.9996 N.ar    1  UNL1       -0.1276
     17 N          58.7111   89.0506   12.6033 N.ar    1  UNL1       -0.0674
     18 N          59.7785   88.1907   11.9940 N.ar    1  UNL1       -0.2579
     19 H          59.9464   87.2430   12.2011 H       1  UNL1        0.1904
     20 C          60.7765   86.2639    9.4156 C.3     1  UNL1        0.0031
     21 C          60.7668   87.7613    9.3269 C.3     1  UNL1        0.0340
     22 C          59.8218   88.4509    8.3882 C.3     1  UNL1        0.0031
     23 O          67.0059   93.8540   13.8768 O.3     1  UNL1       -0.4236
     24 C          67.6839   93.2210   15.0557 C.3     1  UNL1        0.5087
     25 F          66.9842   93.1629   16.3812 F       1  UNL1       -0.1550
     26 F          69.0616   92.6462   14.9091 F       1  UNL1       -0.1550
@<TRIPOS>BOND
     1    20    21    1
     2    21    22    1
     3    21    11    1
     4    11    12    1
     5    11     1    1
     6     1     2   ar
     7     2     3   ar
     8     3     4   ar
     9     4     5   ar
    10     5     6   ar
    11     6    23    1
    12    23    24    1
    13    24    25    1
    14    24    26    1
    15     6     7   ar
    16     7     8   ar
    17     8     9   ar
    18     9    10   ar
    19    11    14    1
    20    14    15   ar
    21    15    16   ar
    22    16    17   ar
    23    17    18   ar
    24    10     1   ar
    25    18    14   ar
    26     9     4   ar
    27    12    13    1
    28    18    19    1
@<TRIPOS>MOLECULE
*****
 26 28 0 0 0
SMALL
GASTEIGER

@<TRIPOS>ATOM
      1 C          63.3195   84.3024   14.0900 C.ar    1  UNL1        0.0070
      2 C          64.1290   84.8183   15.2426 C.ar    1  UNL1       -0.0017
      3 C          64.4895   86.2725   15.3145 C.ar    1  UNL1       -0.0001
      4 C          64.0405   87.2109   14.2339 C.ar    1  UNL1        0.0030
      5 C          64.4011   88.6652   14.3059 C.ar    1  UNL1        0.0371
      6 C          63.9521   89.6036   13.2252 C.ar    1  UNL1        0.1443
      7 C          63.1425   89.0877   12.0726 C.ar    1  UNL1        0.0371
      8 C          62.7820   87.6334   12.0006 C.ar    1  UNL1        0.0031
      9 C          63.2310   86.6950   13.0813 C.ar    1  UNL1       -0.0000
     10 C          62.8705   85.2408   13.0093 C.ar    1  UNL1       -0.0017
     11 C          62.9590   82.8481   14.0179 C.3     1  UNL1        0.1426
     12 O          62.4364   82.9081   15.4226 O.3     1  UNL1       -0.3770
     13 H          62.9969   82.3660   15.9996 H       1  UNL1        0.2112
     14 C          63.4816   82.7882   12.6132 C.ar    1  UNL1        0.1019
     15 C          62.6773   82.4781   11.3857 C.ar    1  UNL1        0.1404
     16 N          63.5990   82.5261   10.2032 N.ar    1  UNL1       -0.1276
     17 N          64.9730   82.8657   10.6999 N.ar    1  UNL1       -0.0674
     18 N          64.9005   83.0277   12.1894 N.ar    1  UNL1       -0.2579
     19 H          65.6522   83.2519   12.7844 H       1  UNL1        0.1904
     20 C          63.6758   80.3605   13.7994 C.3     1  UNL1        0.0031
     21 C          62.5985   81.3939   13.9459 C.3     1  UNL1        0.0340
     22 C          61.1606   80.9730   14.0203 C.3     1  UNL1        0.0031
     23 O          64.3125   91.0578   13.2972 O.3     1  UNL1       -0.4236
     24 C          65.6130   91.4785   13.9152 C.3     1  UNL1        0.5087
     25 F          65.7543   91.5231   15.4079 F       1  UNL1       -0.1550
     26 F          66.7721   91.8544   13.0406 F       1  UNL1       -0.1550
@<TRIPOS>BOND
     1    20    21    1
     2    21    22    1
     3    21    11    1
     4    11    12    1
     5    11     1    1
     6     1     2   ar
     7     2     3   ar
     8     3     4   ar
     9     4     5   ar
    10     5     6   ar
    11     6    23    1
    12    23    24    1
    13    24    25    1
    14    24    26    1
    15     6     7   ar
    16     7     8   ar
    17     8     9   ar
    18     9    10   ar
    19    11    14    1
    20    14    15   ar
    21    15    16   ar
    22    16    17   ar
    23    17    18   ar
    24    10     1   ar
    25    18    14   ar
    26     9     4   ar
    27    12    13    1
    28    18    19    1
@<TRIPOS>MOLECULE
*****
 26 28 0 0 0
SMALL
GASTEIGER

@<TRIPOS>ATOM
      1 C          62.8710   84.7089   13.2021 C.ar    1  UNL1        0.0070
      2 C          62.2550   85.2012   11.9261 C.ar    1  UNL1       -0.0017
      3 C          62.3614   86.6499   11.5521 C.ar    1  UNL1       -0.0001
      4 C          63.0836   87.6063   12.4542 C.ar    1  UNL1        0.0030
      5 C          63.1899   89.0551   12.0801 C.ar    1  UNL1        0.0371
      6 C          63.9122   90.0115   12.9822 C.ar    1  UNL1        0.1443
      7 C          64.5281   89.5191   14.2582 C.ar    1  UNL1        0.0371
      8 C          64.4218   88.0704   14.6322 C.ar    1  UNL1        0.0031
      9 C          63.6995   87.1140   13.7302 C.ar    1  UNL1       -0.0000
     10 C          63.5932   85.6653   14.1041 C.ar    1  UNL1       -0.0017
     11 C          62.7646   83.2601   13.5761 C.3     1  UNL1        0.1426
     12 O          62.1491   83.6442   14.8890 O.3     1  UNL1       -0.3770
     13 H          62.7539   83.4101   15.6104 H       1  UNL1        0.2112
     14 C          63.3802   82.8761   12.2633 C.ar    1  UNL1        0.1019
     15 C          62.7663   81.9774   11.2310 C.ar    1  UNL1        0.1404
     16 N          63.7244   81.8692   10.0819 N.ar    1  UNL1       -0.1276
     17 N          64.9304   82.7011   10.4040 N.ar    1  UNL1       -0.0674
     18 N          64.7176   83.3234   11.7521 N.ar    1  UNL1       -0.2579
     19 H          65.3456   83.9205   12.2194 H       1  UNL1        0.1904
     20 C          61.3129   81.1996   14.2057 C.3     1  UNL1        0.0031
     21 C          62.6584   81.8114   13.9501 C.3     1  UNL1        0.0340
     22 C          63.8976   80.9745   14.0685 C.3     1  UNL1        0.0031
     23 O          64.0185   91.4602   12.6082 O.3     1  UNL1       -0.4236
     24 C          64.4869   91.8485   11.2371 C.3     1  UNL1        0.5087
     25 F          65.9263   92.2033   11.0088 F       1  UNL1       -0.1550
     26 F          63.5159   91.8819   10.0943 F       1  UNL1       -0.1550
@<TRIPOS>BOND
     1    20    21    1
     2    21    22    1
     3    21    11    1
     4    11    12    1
     5    11     1    1
     6     1     2   ar
     7     2     3   ar
     8     3     4   ar
     9     4     5   ar
    10     5     6   ar
    11     6    23    1
    12    23    24    1
    13    24    25    1
    14    24    26    1
    15     6     7   ar
    16     7     8   ar
    17     8     9   ar
    18     9    10   ar
    19    11    14    1
    20    14    15   ar
    21    15    16   ar
    22    16    17   ar
    23    17    18   ar
    24    10     1   ar
    25    18    14   ar
    26     9     4   ar
    27    12    13    1
    28    18    19    1
@<TRIPOS>MOLECULE
*****
 26 28 0 0 0
SMALL
GASTEIGER

@<TRIPOS>ATOM
      1 C          64.9110   91.1206   13.5749 C.ar    1  UNL1        0.0070
      2 C          64.7603   89.7567   14.1807 C.ar    1  UNL1       -0.0017
      3 C          63.8892   88.7327   13.5155 C.ar    1  UNL1       -0.0001
      4 C          63.1688   89.0726   12.2445 C.ar    1  UNL1        0.0030
      5 C          62.2977   88.0486   11.5792 C.ar    1  UNL1        0.0371
      6 C          61.5773   88.3885   10.3082 C.ar    1  UNL1        0.1443
      7 C          61.7280   89.7525    9.7024 C.ar    1  UNL1        0.0371
      8 C          62.5991   90.7764   10.3677 C.ar    1  UNL1        0.0031
      9 C          63.3195   90.4365   11.6387 C.ar    1  UNL1       -0.0000
     10 C          64.1906   91.4605   12.3039 C.ar    1  UNL1       -0.0017
     11 C          65.7822   92.1446   14.2402 C.3     1  UNL1        0.1426
     12 O          64.9159   92.0870   15.4634 O.3     1  UNL1       -0.3770
     13 H          64.4585   92.9349   15.5759 H       1  UNL1        0.2112
     14 C          66.6484   92.2023   13.0170 C.ar    1  UNL1        0.1019
     15 C          66.2695   92.8031   11.6958 C.ar    1  UNL1        0.1404
     16 N          67.4326   92.6414   10.7624 N.ar    1  UNL1       -0.1276
     17 N          68.5303   91.9407   11.5068 N.ar    1  UNL1       -0.0674
     18 N          68.0457   91.6693   12.9001 N.ar    1  UNL1       -0.2579
     19 H          68.5552   91.2202   13.6128 H       1  UNL1        0.1904
     20 C          66.8912   94.4941   14.2446 C.3     1  UNL1        0.0031
     21 C          66.6533   93.1686   14.9054 C.3     1  UNL1        0.0340
     22 C          67.2866   92.8672   16.2314 C.3     1  UNL1        0.0031
     23 O          60.7062   87.3645    9.6429 O.3     1  UNL1       -0.4236
     24 C          61.2972   86.4082    8.6498 C.3     1  UNL1        0.5087
     25 F          60.4014   85.6377    7.7258 F       1  UNL1       -0.1550
     26 F          62.7841   86.2225    8.5807 F       1  UNL1       -0.1550
@<TRIPOS>BOND
     1    20    21    1
     2    21    22    1
     3    21    11    1
     4    11    12    1
     5    11     1    1
     6     1     2   ar
     7     2     3   ar
     8     3     4   ar
     9     4     5   ar
    10     5     6   ar
    11     6    23    1
    12    23    24    1
    13    24    25    1
    14    24    26    1
    15     6     7   ar
    16     7     8   ar
    17     8     9   ar
    18     9    10   ar
    19    11    14    1
    20    14    15   ar
    21    15    16   ar
    22    16    17   ar
    23    17    18   ar
    24    10     1   ar
    25    18    14   ar
    26     9     4   ar
    27    12    13    1
    28    18    19    1
@<TRIPOS>MOLECULE
*****
 26 28 0 0 0
SMALL
GASTEIGER

@<TRIPOS>ATOM
      1 C          61.8170   89.5675   10.5802 C.ar    1  UNL1        0.0070
      2 C          61.7957   89.1735   12.0273 C.ar    1  UNL1       -0.0017
      3 C          62.7562   89.8054   12.9907 C.ar    1  UNL1       -0.0001
      4 C          63.7380   90.8311   12.5070 C.ar    1  UNL1        0.0030
      5 C          64.6985   91.4629   13.4704 C.ar    1  UNL1        0.0371
      6 C          65.6803   92.4887   12.9867 C.ar    1  UNL1        0.1443
      7 C          65.7015   92.8826   11.5394 C.ar    1  UNL1        0.0371
      8 C          64.7410   92.2508   10.5760 C.ar    1  UNL1        0.0031
      9 C          63.7592   91.2250   11.0598 C.ar    1  UNL1       -0.0000
     10 C          62.7987   90.5932   10.0964 C.ar    1  UNL1       -0.0017
     11 C          60.8564   88.9357    9.6167 C.3     1  UNL1        0.1426
     12 O          60.3380   90.2928    9.2435 O.3     1  UNL1       -0.3770
     13 H          59.4180   90.3798    9.5383 H       1  UNL1        0.2112
     14 C          61.3748   87.5785    9.9899 C.ar    1  UNL1        0.1019
     15 C          62.4023   86.7888    9.2345 C.ar    1  UNL1        0.1404
     16 N          62.6193   85.4949    9.9618 N.ar    1  UNL1       -0.1276
     17 N          61.7259   85.4850   11.1668 N.ar    1  UNL1       -0.0674
     18 N          60.9568   86.7727   11.1841 N.ar    1  UNL1       -0.2579
     19 H          60.2940   87.0418   11.8605 H       1  UNL1        0.1904
     20 C          59.6155   88.9608    7.3343 C.3     1  UNL1        0.0031
     21 C          59.8959   88.3038    8.6533 C.3     1  UNL1        0.0340
     22 C          59.2159   87.0149    9.0088 C.3     1  UNL1        0.0031
     23 O          66.6408   93.1205   13.9501 O.3     1  UNL1       -0.4236
     24 C          67.0541   92.3832   15.1893 C.3     1  UNL1        0.5087
     25 F          67.6376   91.0055   15.0829 F       1  UNL1       -0.1550
     26 F          66.8838   93.0237   16.5350 F       1  UNL1       -0.1550
@<TRIPOS>BOND
     1    20    21    1
     2    21    22    1
     3    21    11    1
     4    11    12    1
     5    11     1    1
     6     1     2   ar
     7     2     3   ar
     8     3     4   ar
     9     4     5   ar
    10     5     6   ar
    11     6    23    1
    12    23    24    1
    13    24    25    1
    14    24    26    1
    15     6     7   ar
    16     7     8   ar
    17     8     9   ar
    18     9    10   ar
    19    11    14    1
    20    14    15   ar
    21    15    16   ar
    22    16    17   ar
    23    17    18   ar
    24    10     1   ar
    25    18    14   ar
    26     9     4   ar
    27    12    13    1
    28    18    19    1
@<TRIPOS>MOLECULE
*****
 26 28 0 0 0
SMALL
GASTEIGER

@<TRIPOS>ATOM
      1 C          62.2318   87.2972   10.6006 C.ar    1  UNL1        0.0070
      2 C          62.5258   86.5168    9.3538 C.ar    1  UNL1       -0.0017
      3 C          62.8889   85.0644    9.4463 C.ar    1  UNL1       -0.0001
      4 C          62.9579   84.3923   10.7855 C.ar    1  UNL1        0.0030
      5 C          63.3209   82.9398   10.8779 C.ar    1  UNL1        0.0371
      6 C          63.3899   82.2678   12.2172 C.ar    1  UNL1        0.1443
      7 C          63.0958   83.0482   13.4640 C.ar    1  UNL1        0.0371
      8 C          62.7327   84.5006   13.3715 C.ar    1  UNL1        0.0031
      9 C          62.6638   85.1727   12.0323 C.ar    1  UNL1       -0.0000
     10 C          62.3007   86.6251   11.9398 C.ar    1  UNL1       -0.0017
     11 C          61.8687   88.7497   10.5081 C.3     1  UNL1        0.1426
     12 O          62.9590   89.0843   11.4824 O.3     1  UNL1       -0.3770
     13 H          62.5666   89.4136   12.3061 H       1  UNL1        0.2112
     14 C          60.7784   88.4151    9.5338 C.ar    1  UNL1        0.1019
     15 C          59.7915   87.2933    9.6661 C.ar    1  UNL1        0.1404
     16 N          58.8867   87.3284    8.4701 N.ar    1  UNL1       -0.1276
     17 N          59.3144   88.4721    7.5988 N.ar    1  UNL1       -0.0674
     18 N          60.4835   89.1437    8.2562 N.ar    1  UNL1       -0.2579
     19 H          60.9716   89.9254    7.9099 H       1  UNL1        0.1904
     20 C          60.1261   90.6558   10.7915 C.3     1  UNL1        0.0031
     21 C          61.5056   90.2021   10.4157 C.3     1  UNL1        0.0340
     22 C          62.5220   91.2010    9.9474 C.3     1  UNL1        0.0031
     23 O          63.7529   80.8153   12.3097 O.3     1  UNL1       -0.4236
     24 C          62.6751   79.7721   12.3221 C.3     1  UNL1        0.5087
     25 F          61.7041   79.7106   13.4637 F       1  UNL1       -0.1550
     26 F          62.5684   78.7905   11.1929 F       1  UNL1       -0.1550
@<TRIPOS>BOND
     1    20    21    1
     2    21    22    1
     3    21    11    1
     4    11    12    1
     5    11     1    1
     6     1     2   ar
     7     2     3   ar
     8     3     4   ar
     9     4     5   ar
    10     5     6   ar
    11     6    23    1
    12    23    24    1
    13    24    25    1
    14    24    26    1
    15     6     7   ar
    16     7     8   ar
    17     8     9   ar
    18     9    10   ar
    19    11    14    1
    20    14    15   ar
    21    15    16   ar
    22    16    17   ar
    23    17    18   ar
    24    10     1   ar
    25    18    14   ar
    26     9     4   ar
    27    12    13    1
    28    18    19    1
@<TRIPOS>MOLECULE
*****
 26 28 0 0 0
SMALL
GASTEIGER

@<TRIPOS>ATOM
      1 C          62.8422   85.2772   12.3056 C.ar    1  UNL1        0.0070
      2 C          62.2228   86.0722   11.1947 C.ar    1  UNL1       -0.0017
      3 C          62.3627   87.5655   11.1727 C.ar    1  UNL1       -0.0001
      4 C          63.1221   88.2637   12.2617 C.ar    1  UNL1        0.0030
      5 C          63.2620   89.7571   12.2397 C.ar    1  UNL1        0.0371
      6 C          64.0214   90.4553   13.3286 C.ar    1  UNL1        0.1443
      7 C          64.6409   89.6602   14.4395 C.ar    1  UNL1        0.0371
      8 C          64.5010   88.1670   14.4615 C.ar    1  UNL1        0.0031
      9 C          63.7416   87.4687   13.3726 C.ar    1  UNL1       -0.0000
     10 C          63.6016   85.9755   13.3945 C.ar    1  UNL1       -0.0017
     11 C          62.7023   83.7839   12.3276 C.3     1  UNL1        0.1426
     12 O          62.5723   83.7740   10.8333 O.3     1  UNL1       -0.3770
     13 H          61.6779   83.4894   10.5884 H       1  UNL1        0.2112
     14 C          62.8323   83.7938   13.8219 C.ar    1  UNL1        0.1019
     15 C          63.9602   83.2002   14.6128 C.ar    1  UNL1        0.1404
     16 N          63.6822   83.4386   16.0675 N.ar    1  UNL1       -0.1276
     17 N          62.3823   84.1795   16.1756 N.ar    1  UNL1       -0.0674
     18 N          61.8571   84.3990   14.7878 N.ar    1  UNL1       -0.2579
     19 H          61.0194   84.8594   14.5522 H       1  UNL1        0.1904
     20 C          61.6979   81.6335   13.3845 C.3     1  UNL1        0.0031
     21 C          62.5624   82.2906   12.3497 C.3     1  UNL1        0.0340
     22 C          63.2870   81.4543   11.3368 C.3     1  UNL1        0.0031
     23 O          64.1614   91.9486   13.3066 O.3     1  UNL1       -0.4236
     24 C          65.4368   92.5754   12.8266 C.3     1  UNL1        0.5087
     25 F          66.7503   92.1423   13.4073 F       1  UNL1       -0.1550
     26 F          65.3988   93.6353   11.7659 F       1  UNL1       -0.1550
@<TRIPOS>BOND
     1    20    21    1
     2    21    22    1
     3    21    11    1
     4    11    12    1
     5    11     1    1
     6     1     2   ar
     7     2     3   ar
     8     3     4   ar
     9     4     5   ar
    10     5     6   ar
    11     6    23    1
    12    23    24    1
    13    24    25    1
    14    24    26    1
    15     6     7   ar
    16     7     8   ar
    17     8     9   ar
    18     9    10   ar
    19    11    14    1
    20    14    15   ar
    21    15    16   ar
    22    16    17   ar
    23    17    18   ar
    24    10     1   ar
    25    18    14   ar
    26     9     4   ar
    27    12    13    1
    28    18    19    1
@<TRIPOS>MOLECULE
*****
 26 28 0 0 0
SMALL
GASTEIGER

@<TRIPOS>ATOM
      1 C          62.7899   87.6203   11.8076 C.ar    1  UNL1        0.0070
      2 C          62.0158   86.6997   10.9114 C.ar    1  UNL1       -0.0017
      3 C          61.9799   85.2280   11.1990 C.ar    1  UNL1       -0.0001
      4 C          62.7182   84.6769   12.3827 C.ar    1  UNL1        0.0030
      5 C          62.6823   83.2051   12.6703 C.ar    1  UNL1        0.0371
      6 C          63.4206   82.6540   13.8541 C.ar    1  UNL1        0.1443
      7 C          64.1947   83.5747   14.7502 C.ar    1  UNL1        0.0371
      8 C          64.2306   85.0464   14.4626 C.ar    1  UNL1        0.0031
      9 C          63.4923   85.5975   13.2789 C.ar    1  UNL1       -0.0000
     10 C          63.5282   87.0692   12.9913 C.ar    1  UNL1       -0.0017
     11 C          62.8258   89.0921   11.5200 C.3     1  UNL1        0.1426
     12 O          62.6267   88.8117   10.0600 O.3     1  UNL1       -0.3770
     13 H          63.4241   89.0666    9.5701 H       1  UNL1        0.2112
     14 C          63.0249   89.3724   12.9800 C.ar    1  UNL1        0.1019
     15 C          64.3197   89.2657   13.7298 C.ar    1  UNL1        0.1404
     16 N          64.0592   89.6361   15.1599 N.ar    1  UNL1       -0.1276
     17 N          62.6033   89.9717   15.2939 N.ar    1  UNL1       -0.0674
     18 N          61.9641   89.8088   13.9467 N.ar    1  UNL1       -0.2579
     19 H          61.0150   89.9615   13.7343 H       1  UNL1        0.1904
     20 C          64.1102   91.3503   11.5016 C.3     1  UNL1        0.0031
     21 C          62.8617   90.5638   11.2325 C.3     1  UNL1        0.0340
     22 C          61.6490   91.2490   10.6758 C.3     1  UNL1        0.0031
     23 O          63.3847   81.1823   14.1416 O.3     1  UNL1       -0.4236
     24 C          62.2757   80.3369   13.5889 C.3     1  UNL1        0.5087
     25 F          60.9050   80.4088   14.1937 F       1  UNL1       -0.1550
     26 F          62.5375   79.4195   12.4314 F       1  UNL1       -0.1550
@<TRIPOS>BOND
     1    20    21    1
     2    21    22    1
     3    21    11    1
     4    11    12    1
     5    11     1    1
     6     1     2   ar
     7     2     3   ar
     8     3     4   ar
     9     4     5   ar
    10     5     6   ar
    11     6    23    1
    12    23    24    1
    13    24    25    1
    14    24    26    1
    15     6     7   ar
    16     7     8   ar
    17     8     9   ar
    18     9    10   ar
    19    11    14    1
    20    14    15   ar
    21    15    16   ar
    22    16    17   ar
    23    17    18   ar
    24    10     1   ar
    25    18    14   ar
    26     9     4   ar
    27    12    13    1
    28    18    19    1
