@<TRIPOS>MOLECULE
*****
 33 37 0 0 0
SMALL
GASTEIGER

@<TRIPOS>ATOM
      1 C          59.9428   89.0185    8.1619 C.3     1  UNL1        0.1411
      2 O          60.1227   90.4685    8.5014 O.3     1  UNL1       -0.3753
      3 C          59.4960   87.7716    7.4580 C.3     1  UNL1        0.0395
      4 C          60.0667   86.5949    8.1927 C.3     1  UNL1        0.0039
      5 C          60.8661   87.1146    9.3505 C.3     1  UNL1        0.0070
      6 C          61.6540   86.4174   10.4198 C.3     1  UNL1        0.0187
      7 C          61.7305   84.9195   10.4388 C.3     1  UNL1        0.0087
      8 C          62.5184   84.2222   11.5080 C.3     1  UNL1        0.0264
      9 C          63.2297   85.0230   12.5582 C.2     1  UNL1       -0.0239
     10 C          64.0175   84.3258   13.6274 C.2     1  UNL1        0.0329
     11 C          64.7288   85.1265   14.6776 C.2     1  UNL1        0.1731
     12 O          65.5166   84.4293   15.7468 O.2     1  UNL1       -0.2913
     13 C          64.6522   86.6244   14.6586 C.3     1  UNL1        0.0738
     14 C          63.8644   87.3216   13.5894 C.3     1  UNL1        0.0335
     15 C          63.1531   86.5209   12.5392 C.2     1  UNL1       -0.0332
     16 C          62.3653   87.2181   11.4699 C.2     1  UNL1       -0.0450
     17 C          62.2887   88.7160   11.4509 C.3     1  UNL1        0.0403
     18 C          61.5009   89.4132   10.3817 C.3     1  UNL1        0.0116
     19 C          60.7896   88.6125    9.3315 C.3     1  UNL1        0.0342
     20 C          60.7282   90.1113    9.3339 C.3     1  UNL1        0.0034
     21 H          59.6431   91.0132    7.8578 H       1  UNL1        0.2114
     22 C          63.0001   89.5167   12.5012 C.ar    1  UNL1       -0.0187
     23 C          64.2193   90.3123   12.1400 C.ar    1  UNL1       -0.0027
     24 C          64.9305   91.1130   13.1902 C.ar    1  UNL1        0.0142
     25 C          64.4226   91.1181   14.6016 C.ar    1  UNL1        0.0479
     26 C          63.2033   90.3225   14.9627 C.ar    1  UNL1        0.0142
     27 C          62.4921   89.5218   13.9125 C.ar    1  UNL1       -0.0027
     28 N          65.1339   91.9188   15.6518 N.pl3   1  UNL1       -0.3041
     29 C          64.4464   92.2362   16.9466 C.3     1  UNL1        0.1122
     30 C          66.5327   92.4020   15.4072 C.3     1  UNL1        0.1122
     31 C          57.5793   91.1101    4.9541 C.3     1  UNL1        0.0900
     32 C          58.3672   90.4129    6.0234 C.1     1  UNL1       -0.0878
     33 C          59.1550   89.7157    7.0926 C.1     1  UNL1       -0.0657
@<TRIPOS>BOND
     1    31    32    1
     2    32    33    3
     3    33     1    1
     4     1     2    1
     5     1     3    1
     6     3     4    1
     7     5     4    1
     8     5     6    1
     9     6     7    1
    10     7     8    1
    11     8     9    1
    12     9    10    2
    13    10    11    1
    14    11    12    2
    15    11    13    1
    16    13    14    1
    17    14    15    1
    18    15    16    2
    19    16    17    1
    20    17    22    1
    21    22    23   ar
    22    23    24   ar
    23    24    25   ar
    24    25    28    1
    25    28    29    1
    26    28    30    1
    27    25    26   ar
    28    26    27   ar
    29    17    18    1
    30    18    19    1
    31    19    20    1
    32    19     1    1
    33    19     5    1
    34    16     6    1
    35    27    22   ar
    36    15     9    1
    37     2    21    1
