@<TRIPOS>MOLECULE
*****
 26 29 0 0 0
SMALL
GASTEIGER

@<TRIPOS>ATOM
      1 C          64.2420   87.5357   14.2914 C.2     1  UNL1        0.2252
      2 O          64.5694   88.8761   14.8794 O.2     1  UNL1       -0.2750
      3 N          63.5098   87.4483   12.9851 N.am    1  UNL1       -0.3004
      4 H          63.2949   86.5684   12.5991 H       1  UNL1        0.1497
      5 C          64.6468   86.2825   15.0096 C.3     1  UNL1        0.1154
      6 C          63.4236   86.0334   16.5816 C.3     1  UNL1        0.0335
      7 C          63.6209   85.2354   15.3270 C.3     1  UNL1        0.1377
      8 C          64.0327   84.6562   14.0060 C.3     1  UNL1        0.0613
      9 C          63.2199   83.4178   13.7692 C.3     1  UNL1        0.1290
     10 C          62.3388   82.2079   13.6709 C.3     1  UNL1        0.0305
     11 C          62.4250   81.3129   12.4703 C.3     1  UNL1        0.0025
     12 C          63.3924   81.6278   11.3680 C.3     1  UNL1        0.0002
     13 C          64.2735   82.8377   11.4663 C.3     1  UNL1        0.0025
     14 C          64.1873   83.7327   12.6669 C.3     1  UNL1        0.0305
     15 O          62.3058   83.2317   14.9439 O.3     1  UNL1       -0.2256
     16 O          62.5536   84.3550   15.9067 O.3     1  UNL1       -0.2251
     17 C          63.1050   88.7014   12.2669 C.3     1  UNL1        0.1164
     18 C          62.1289   88.6323   11.1301 C.ar    1  UNL1        0.0004
     19 C          61.5266   89.8916   10.5811 C.ar    1  UNL1       -0.0027
     20 C          60.5505   89.8225    9.4442 C.ar    1  UNL1       -0.0014
     21 C          60.1767   88.4941    8.8564 C.ar    1  UNL1        0.0155
     22 C          60.7789   87.2349    9.4053 C.ar    1  UNL1        0.1344
     23 C          61.7551   87.3039   10.5423 C.ar    1  UNL1        0.0340
     24 O          60.2238   86.0784    8.6280 O.3     1  UNL1       -0.4754
     25 C          59.2785   86.6229    7.5986 C.3     1  UNL1        0.2102
     26 C          59.2493   88.1160    7.7397 C.3     1  UNL1        0.0767
@<TRIPOS>BOND
     1     6     7    1
     2     7     5    1
     3     5     1    1
     4     1     2    2
     5     1     3   am
     6     3    17    1
     7    17    18    1
     8    18    19   ar
     9    19    20   ar
    10    20    21   ar
    11    21    22   ar
    12    22    23   ar
    13    22    24    1
    14    24    25    1
    15    25    26    1
    16     7     8    1
    17     8     9    1
    18     9    10    1
    19    10    11    1
    20    11    12    1
    21    12    13    1
    22    13    14    1
    23     9    15    1
    24    15    16    1
    25    16     7    1
    26    23    18   ar
    27    14     9    1
    28    26    21    1
    29     3     4    1
@<TRIPOS>MOLECULE
*****
 26 29 0 0 0
SMALL
GASTEIGER

@<TRIPOS>ATOM
      1 C          63.0917   83.6820   14.9254 C.2     1  UNL1        0.2252
      2 O          64.5816   83.7155   15.0951 O.2     1  UNL1       -0.2750
      3 N          62.2266   84.6279   15.7045 N.am    1  UNL1       -0.3004
      4 H          61.2487   84.6059   15.5932 H       1  UNL1        0.1497
      5 C          62.4667   82.7026   13.9766 C.3     1  UNL1        0.1154
      6 C          63.5140   81.1372   13.2820 C.3     1  UNL1        0.0335
      7 C          63.1067   82.4337   12.6470 C.3     1  UNL1        0.1377
      8 C          62.5656   83.7864   12.2899 C.3     1  UNL1        0.0613
      9 C          62.9564   84.0825   10.8723 C.3     1  UNL1        0.1290
     10 C          63.4178   84.2384    9.4536 C.3     1  UNL1        0.0305
     11 C          63.0845   85.4853    8.6893 C.3     1  UNL1        0.0025
     12 C          62.2898   86.5763    9.3437 C.3     1  UNL1        0.0002
     13 C          61.8285   86.4204   10.7624 C.3     1  UNL1        0.0025
     14 C          62.1618   85.1735   11.5267 C.3     1  UNL1        0.0305
     15 O          63.7390   82.9128   10.3532 O.3     1  UNL1       -0.2256
     16 O          63.8319   81.8937   11.4500 O.3     1  UNL1       -0.2251
     17 C          62.8516   85.6073   16.6533 C.3     1  UNL1        0.1164
     18 C          63.3216   86.9409   16.1527 C.ar    1  UNL1        0.0004
     19 C          64.1006   87.0300   14.8739 C.ar    1  UNL1       -0.0027
     20 C          64.5706   88.3636   14.3733 C.ar    1  UNL1       -0.0014
     21 C          64.2617   89.6081   15.1516 C.ar    1  UNL1        0.0155
     22 C          63.4828   89.5191   16.4303 C.ar    1  UNL1        0.1344
     23 C          63.0128   88.1855   16.9310 C.ar    1  UNL1        0.0340
     24 O          63.3306   90.9072   16.9780 O.3     1  UNL1       -0.4754
     25 C          64.0154   91.8541   16.0377 C.3     1  UNL1        0.2102
     26 C          64.5909   91.0513   14.9088 C.3     1  UNL1        0.0767
@<TRIPOS>BOND
     1     6     7    1
     2     7     5    1
     3     5     1    1
     4     1     2    2
     5     1     3   am
     6     3    17    1
     7    17    18    1
     8    18    19   ar
     9    19    20   ar
    10    20    21   ar
    11    21    22   ar
    12    22    23   ar
    13    22    24    1
    14    24    25    1
    15    25    26    1
    16     7     8    1
    17     8     9    1
    18     9    10    1
    19    10    11    1
    20    11    12    1
    21    12    13    1
    22    13    14    1
    23     9    15    1
    24    15    16    1
    25    16     7    1
    26    23    18   ar
    27    14     9    1
    28    26    21    1
    29     3     4    1
@<TRIPOS>MOLECULE
*****
 26 29 0 0 0
SMALL
GASTEIGER

@<TRIPOS>ATOM
      1 C          63.0312   84.3598   14.4236 C.2     1  UNL1        0.2252
      2 O          61.8331   84.8645   15.1716 O.2     1  UNL1       -0.2750
      3 N          64.2832   85.1841   14.3688 N.am    1  UNL1       -0.3004
      4 H          65.0697   84.8529   13.8778 H       1  UNL1        0.1497
      5 C          62.9774   83.0306   13.7303 C.3     1  UNL1        0.1154
      6 C          64.4411   81.7741   13.1748 C.3     1  UNL1        0.0335
      7 C          63.6917   82.8359   12.4258 C.3     1  UNL1        0.1377
      8 C          62.7930   83.9383   11.9494 C.3     1  UNL1        0.0613
      9 C          63.1085   84.2030   10.5070 C.3     1  UNL1        0.1290
     10 C          63.5318   84.3541    9.0760 C.3     1  UNL1        0.0305
     11 C          62.8698   85.3778    8.2021 C.3     1  UNL1        0.0025
     12 C          61.7846   86.2506    8.7594 C.3     1  UNL1        0.0002
     13 C          61.3613   86.0996   10.1904 C.3     1  UNL1        0.0025
     14 C          62.0232   85.0758   11.0642 C.3     1  UNL1        0.0305
     15 O          64.2022   83.2641   10.0919 O.3     1  UNL1       -0.2256
     16 O          64.5627   82.4192   11.2778 O.3     1  UNL1       -0.2251
     17 C          64.3370   86.5132   15.0621 C.3     1  UNL1        0.1164
     18 C          64.1324   87.7763   14.2793 C.ar    1  UNL1        0.0004
     19 C          64.5945   89.0888   14.8393 C.ar    1  UNL1       -0.0027
     20 C          64.3900   90.3519   14.0565 C.ar    1  UNL1       -0.0014
     21 C          63.7232   90.3024   12.7137 C.ar    1  UNL1        0.0155
     22 C          63.2611   88.9899   12.1538 C.ar    1  UNL1        0.1344
     23 C          63.4657   87.7267   12.9366 C.ar    1  UNL1        0.0340
     24 O          62.6399   89.2506   10.8136 O.3     1  UNL1       -0.4754
     25 C          62.7180   90.7243   10.5453 C.3     1  UNL1        0.2102
     26 C          63.3876   91.3744   11.7197 C.3     1  UNL1        0.0767
@<TRIPOS>BOND
     1     6     7    1
     2     7     5    1
     3     5     1    1
     4     1     2    2
     5     1     3   am
     6     3    17    1
     7    17    18    1
     8    18    19   ar
     9    19    20   ar
    10    20    21   ar
    11    21    22   ar
    12    22    23   ar
    13    22    24    1
    14    24    25    1
    15    25    26    1
    16     7     8    1
    17     8     9    1
    18     9    10    1
    19    10    11    1
    20    11    12    1
    21    12    13    1
    22    13    14    1
    23     9    15    1
    24    15    16    1
    25    16     7    1
    26    23    18   ar
    27    14     9    1
    28    26    21    1
    29     3     4    1
@<TRIPOS>MOLECULE
*****
 26 29 0 0 0
SMALL
GASTEIGER

@<TRIPOS>ATOM
      1 C          60.7077   89.1328   11.0353 C.2     1  UNL1        0.2252
      2 O          59.7437   90.1484   11.5730 O.2     1  UNL1       -0.2750
      3 N          62.1595   89.4806   10.8887 N.am    1  UNL1       -0.3004
      4 H          62.7922   88.8140   10.5358 H       1  UNL1        0.1497
      5 C          60.2199   87.7692   10.6440 C.3     1  UNL1        0.1154
      6 C          60.1854   87.8719    8.6395 C.3     1  UNL1        0.0335
      7 C          60.9430   86.9891    9.5865 C.3     1  UNL1        0.1377
      8 C          61.5494   86.2694   10.7545 C.3     1  UNL1        0.0613
      9 C          62.4890   85.2288   10.2209 C.3     1  UNL1        0.1290
     10 C          63.3886   84.2379    9.5438 C.3     1  UNL1        0.0305
     11 C          64.2096   83.2876   10.3640 C.3     1  UNL1        0.0025
     12 C          64.1311   83.3283   11.8614 C.3     1  UNL1        0.0002
     13 C          63.2315   84.3193   12.5385 C.3     1  UNL1        0.0025
     14 C          62.4104   85.2696   11.7183 C.3     1  UNL1        0.0305
     15 O          62.4632   85.3055    8.7231 O.3     1  UNL1       -0.2256
     16 O          61.5077   86.3934    8.3310 O.3     1  UNL1       -0.2251
     17 C          62.6471   90.8441   11.2800 C.3     1  UNL1        0.1164
     18 C          63.7547   90.9856   12.2816 C.ar    1  UNL1        0.0004
     19 C          63.8038   90.0823   13.4781 C.ar    1  UNL1       -0.0027
     20 C          64.9114   90.2238   14.4797 C.ar    1  UNL1       -0.0014
     21 C          65.9698   91.2687   14.2848 C.ar    1  UNL1        0.0155
     22 C          65.9207   92.1719   13.0884 C.ar    1  UNL1        0.1344
     23 C          64.8131   92.0305   12.0867 C.ar    1  UNL1        0.0340
     24 O          67.0949   93.1025   13.1617 O.3     1  UNL1       -0.4754
     25 C          67.8697   92.7743   14.4034 C.3     1  UNL1        0.2102
     26 C          67.1743   91.6409   15.0976 C.3     1  UNL1        0.0767
@<TRIPOS>BOND
     1     6     7    1
     2     7     5    1
     3     5     1    1
     4     1     2    2
     5     1     3   am
     6     3    17    1
     7    17    18    1
     8    18    19   ar
     9    19    20   ar
    10    20    21   ar
    11    21    22   ar
    12    22    23   ar
    13    22    24    1
    14    24    25    1
    15    25    26    1
    16     7     8    1
    17     8     9    1
    18     9    10    1
    19    10    11    1
    20    11    12    1
    21    12    13    1
    22    13    14    1
    23     9    15    1
    24    15    16    1
    25    16     7    1
    26    23    18   ar
    27    14     9    1
    28    26    21    1
    29     3     4    1
@<TRIPOS>MOLECULE
*****
 26 29 0 0 0
SMALL
GASTEIGER

@<TRIPOS>ATOM
      1 C          63.8624   83.6005   13.3151 C.2     1  UNL1        0.2252
      2 O          65.3203   83.9444   13.2372 O.2     1  UNL1       -0.2750
      3 N          63.0793   83.9291   14.5516 N.am    1  UNL1       -0.3004
      4 H          62.1224   83.7035   14.6027 H       1  UNL1        0.1497
      5 C          63.1875   82.9280   12.1565 C.3     1  UNL1        0.1154
      6 C          64.2211   82.2273   10.5847 C.3     1  UNL1        0.0335
      7 C          63.3808   83.4566   10.7661 C.3     1  UNL1        0.1377
      8 C          62.5001   84.5753   11.2382 C.3     1  UNL1        0.0613
      9 C          62.3248   85.5384   10.1016 C.3     1  UNL1        0.1290
     10 C          62.2413   86.4059    8.8807 C.3     1  UNL1        0.0305
     11 C          61.4352   87.6704    8.9130 C.3     1  UNL1        0.0025
     12 C          60.7126   88.0675   10.1661 C.3     1  UNL1        0.0002
     13 C          60.7961   87.2000   11.3869 C.3     1  UNL1        0.0025
     14 C          61.6022   85.9354   11.3546 C.3     1  UNL1        0.0305
     15 O          63.0972   85.0149    8.9271 O.3     1  UNL1       -0.2256
     16 O          63.7499   83.7282    9.3378 O.3     1  UNL1       -0.2251
     17 C          63.7542   84.6016   15.7101 C.3     1  UNL1        0.1164
     18 C          63.6796   86.0923   15.8594 C.ar    1  UNL1        0.0004
     19 C          63.0306   86.6932   17.0709 C.ar    1  UNL1       -0.0027
     20 C          62.9560   88.1839   17.2201 C.ar    1  UNL1       -0.0014
     21 C          63.5303   89.0737   16.1579 C.ar    1  UNL1        0.0155
     22 C          64.1792   88.4728   14.9464 C.ar    1  UNL1        0.1344
     23 C          64.2539   86.9821   14.7971 C.ar    1  UNL1        0.0340
     24 O          64.6541   89.5943   14.0707 O.3     1  UNL1       -0.4754
     25 C          64.2986   90.8881   14.7409 C.3     1  UNL1        0.2102
     26 C          63.6040   90.5664   16.0309 C.3     1  UNL1        0.0767
@<TRIPOS>BOND
     1     6     7    1
     2     7     5    1
     3     5     1    1
     4     1     2    2
     5     1     3   am
     6     3    17    1
     7    17    18    1
     8    18    19   ar
     9    19    20   ar
    10    20    21   ar
    11    21    22   ar
    12    22    23   ar
    13    22    24    1
    14    24    25    1
    15    25    26    1
    16     7     8    1
    17     8     9    1
    18     9    10    1
    19    10    11    1
    20    11    12    1
    21    12    13    1
    22    13    14    1
    23     9    15    1
    24    15    16    1
    25    16     7    1
    26    23    18   ar
    27    14     9    1
    28    26    21    1
    29     3     4    1
@<TRIPOS>MOLECULE
*****
 26 29 0 0 0
SMALL
GASTEIGER

@<TRIPOS>ATOM
      1 C          64.1920   82.9133   11.2788 C.2     1  UNL1        0.2252
      2 O          64.8300   82.4158   10.0158 O.2     1  UNL1       -0.2750
      3 N          63.2045   84.0412   11.2263 N.am    1  UNL1       -0.3004
      4 H          62.7857   84.3678   12.0553 H       1  UNL1        0.1497
      5 C          64.5414   82.2830   12.5944 C.3     1  UNL1        0.1154
      6 C          63.2520   80.9200   13.3082 C.3     1  UNL1        0.0335
      7 C          63.5624   82.3257   13.7299 C.3     1  UNL1        0.1377
      8 C          64.0774   83.7224   13.9142 C.3     1  UNL1        0.0613
      9 C          63.3517   84.3346   15.0756 C.3     1  UNL1        0.1290
     10 C          62.5488   84.8106   16.2498 C.3     1  UNL1        0.0305
     11 C          62.7512   86.1976   16.7839 C.3     1  UNL1        0.0025
     12 C          63.7564   87.1085   16.1438 C.3     1  UNL1        0.0002
     13 C          64.5593   86.6325   14.9697 C.3     1  UNL1        0.0025
     14 C          64.3570   85.2455   14.4356 C.3     1  UNL1        0.0305
     15 O          62.3882   83.3162   15.6091 O.3     1  UNL1       -0.2256
     16 O          62.5184   82.0746   14.7774 O.3     1  UNL1       -0.2251
     17 C          62.8551   84.6715    9.9108 C.3     1  UNL1        0.1164
     18 C          62.1055   85.9704    9.8770 C.ar    1  UNL1        0.0004
     19 C          61.2826   86.3304    8.6757 C.ar    1  UNL1       -0.0027
     20 C          60.5330   87.6292    8.6419 C.ar    1  UNL1       -0.0014
     21 C          60.6063   88.5680    9.8095 C.ar    1  UNL1        0.0155
     22 C          61.4292   88.2080   11.0108 C.ar    1  UNL1        0.1344
     23 C          62.1789   86.9092   11.0446 C.ar    1  UNL1        0.0340
     24 O          61.3122   89.3255   12.0045 O.3     1  UNL1       -0.4754
     25 C          60.4169   90.3760   11.4174 C.3     1  UNL1        0.2102
     26 C          59.9807   89.9079   10.0608 C.3     1  UNL1        0.0767
@<TRIPOS>BOND
     1     6     7    1
     2     7     5    1
     3     5     1    1
     4     1     2    2
     5     1     3   am
     6     3    17    1
     7    17    18    1
     8    18    19   ar
     9    19    20   ar
    10    20    21   ar
    11    21    22   ar
    12    22    23   ar
    13    22    24    1
    14    24    25    1
    15    25    26    1
    16     7     8    1
    17     8     9    1
    18     9    10    1
    19    10    11    1
    20    11    12    1
    21    12    13    1
    22    13    14    1
    23     9    15    1
    24    15    16    1
    25    16     7    1
    26    23    18   ar
    27    14     9    1
    28    26    21    1
    29     3     4    1
@<TRIPOS>MOLECULE
*****
 26 29 0 0 0
SMALL
GASTEIGER

@<TRIPOS>ATOM
      1 C          64.1466   86.0417   14.8760 C.2     1  UNL1        0.2252
      2 O          65.6454   86.0146   14.9245 O.2     1  UNL1       -0.2750
      3 N          63.4136   87.3380   15.0564 N.am    1  UNL1       -0.3004
      4 H          62.4297   87.3557   15.0246 H       1  UNL1        0.1497
      5 C          63.3805   84.7724   14.6472 C.3     1  UNL1        0.1154
      6 C          64.2123   82.9516   14.4981 C.3     1  UNL1        0.0335
      7 C          63.6980   83.9079   13.4633 C.3     1  UNL1        0.1377
      8 C          63.1173   85.0450   12.6760 C.3     1  UNL1        0.0613
      9 C          63.1835   84.6833   11.2217 C.3     1  UNL1        0.1290
     10 C          63.3153   84.1864    9.8126 C.3     1  UNL1        0.0305
     11 C          62.8429   85.0361    8.6704 C.3     1  UNL1        0.0025
     12 C          62.2385   86.3828    8.9373 C.3     1  UNL1        0.0002
     13 C          62.1067   86.8798   10.3464 C.3     1  UNL1        0.0025
     14 C          62.5791   86.0300   11.4886 C.3     1  UNL1        0.0305
     15 O          63.8050   83.3227   11.1102 O.3     1  UNL1       -0.2256
     16 O          64.1231   82.8435   12.4957 O.3     1  UNL1       -0.2251
     17 C          64.1796   88.6071   15.2852 C.3     1  UNL1        0.1164
     18 C          64.3035   89.6174   14.1834 C.ar    1  UNL1        0.0004
     19 C          63.4674   89.4831   12.9452 C.ar    1  UNL1       -0.0027
     20 C          63.5913   90.4934   11.8434 C.ar    1  UNL1       -0.0014
     21 C          64.5513   91.6379   11.9797 C.ar    1  UNL1        0.0155
     22 C          65.3873   91.7721   13.2178 C.ar    1  UNL1        0.1344
     23 C          65.2634   90.7619   14.3197 C.ar    1  UNL1        0.0340
     24 O          66.2408   92.9968   13.0702 O.3     1  UNL1       -0.4754
     25 C          65.9322   93.6194   11.7409 C.3     1  UNL1        0.2102
     26 C          64.8880   92.7795   11.0669 C.3     1  UNL1        0.0767
@<TRIPOS>BOND
     1     6     7    1
     2     7     5    1
     3     5     1    1
     4     1     2    2
     5     1     3   am
     6     3    17    1
     7    17    18    1
     8    18    19   ar
     9    19    20   ar
    10    20    21   ar
    11    21    22   ar
    12    22    23   ar
    13    22    24    1
    14    24    25    1
    15    25    26    1
    16     7     8    1
    17     8     9    1
    18     9    10    1
    19    10    11    1
    20    11    12    1
    21    12    13    1
    22    13    14    1
    23     9    15    1
    24    15    16    1
    25    16     7    1
    26    23    18   ar
    27    14     9    1
    28    26    21    1
    29     3     4    1
@<TRIPOS>MOLECULE
*****
 26 29 0 0 0
SMALL
GASTEIGER

@<TRIPOS>ATOM
      1 C          60.8170   88.4542   10.0408 C.2     1  UNL1        0.2252
      2 O          59.8494   89.4151   10.6654 O.2     1  UNL1       -0.2750
      3 N          62.2256   88.8856    9.7579 N.am    1  UNL1       -0.3004
      4 H          62.8607   88.2549    9.3480 H       1  UNL1        0.1497
      5 C          60.3762   87.0617    9.6990 C.3     1  UNL1        0.1154
      6 C          60.7109   86.6688    7.7591 C.3     1  UNL1        0.0335
      7 C          61.3237   86.1220    9.0142 C.3     1  UNL1        0.1377
      8 C          61.7385   85.7716   10.4125 C.3     1  UNL1        0.0613
      9 C          62.8143   84.7295   10.3295 C.3     1  UNL1        0.1290
     10 C          63.8751   83.6963   10.0905 C.3     1  UNL1        0.0305
     11 C          64.5775   83.0597   11.2530 C.3     1  UNL1        0.0025
     12 C          64.2190   83.4562   12.6545 C.3     1  UNL1        0.0002
     13 C          63.1582   84.4894   12.8935 C.3     1  UNL1        0.0025
     14 C          62.4558   85.1260   11.7310 C.3     1  UNL1        0.0305
     15 O          63.0644   84.4359    8.8799 O.3     1  UNL1       -0.2256
     16 O          62.1432   85.2965    8.0670 O.3     1  UNL1       -0.2251
     17 C          62.6664   90.2780   10.0997 C.3     1  UNL1        0.1164
     18 C          63.2016   90.5807   11.4679 C.ar    1  UNL1        0.0004
     19 C          64.3598   91.5201   11.6293 C.ar    1  UNL1       -0.0027
     20 C          64.8950   91.8228   12.9975 C.ar    1  UNL1       -0.0014
     21 C          64.2719   91.1860   14.2043 C.ar    1  UNL1        0.0155
     22 C          63.1138   90.2467   14.0429 C.ar    1  UNL1        0.1344
     23 C          62.5786   89.9439   12.6747 C.ar    1  UNL1        0.0340
     24 O          62.7077   89.7729   15.4070 O.3     1  UNL1       -0.4754
     25 C          63.6149   90.4195   16.4113 C.3     1  UNL1        0.2102
     26 C          64.5817   91.2929   15.6680 C.3     1  UNL1        0.0767
@<TRIPOS>BOND
     1     6     7    1
     2     7     5    1
     3     5     1    1
     4     1     2    2
     5     1     3   am
     6     3    17    1
     7    17    18    1
     8    18    19   ar
     9    19    20   ar
    10    20    21   ar
    11    21    22   ar
    12    22    23   ar
    13    22    24    1
    14    24    25    1
    15    25    26    1
    16     7     8    1
    17     8     9    1
    18     9    10    1
    19    10    11    1
    20    11    12    1
    21    12    13    1
    22    13    14    1
    23     9    15    1
    24    15    16    1
    25    16     7    1
    26    23    18   ar
    27    14     9    1
    28    26    21    1
    29     3     4    1
@<TRIPOS>MOLECULE
*****
 26 29 0 0 0
SMALL
GASTEIGER

@<TRIPOS>ATOM
      1 C          61.0668   88.1297   10.3760 C.2     1  UNL1        0.2252
      2 O          60.4594   88.9594    9.2841 O.2     1  UNL1       -0.2750
      3 N          61.8484   88.7898   11.4732 N.am    1  UNL1       -0.3004
      4 H          62.2471   88.2452   12.1899 H       1  UNL1        0.1497
      5 C          60.8929   86.6397   10.3710 C.3     1  UNL1        0.1154
      6 C          61.6152   86.4758    8.5053 C.3     1  UNL1        0.0335
      7 C          61.9563   85.7625    9.7800 C.3     1  UNL1        0.1377
      8 C          62.0751   85.2327   11.1782 C.3     1  UNL1        0.0613
      9 C          63.1408   84.1770   11.1850 C.3     1  UNL1        0.1290
     10 C          64.2238   83.1496   11.0382 C.3     1  UNL1        0.0305
     11 C          64.6710   82.3559   12.2298 C.3     1  UNL1        0.0025
     12 C          64.0354   82.5896   13.5682 C.3     1  UNL1        0.0002
     13 C          62.9525   83.6171   13.7150 C.3     1  UNL1        0.0025
     14 C          62.5052   84.4107   12.5234 C.3     1  UNL1        0.0305
     15 O          63.6807   84.0544    9.7908 O.3     1  UNL1       -0.2256
     16 O          62.9486   85.0344    8.9225 O.3     1  UNL1       -0.2251
     17 C          62.0223   90.2797   11.4782 C.3     1  UNL1        0.1164
     18 C          63.3307   90.8805   11.8990 C.ar    1  UNL1        0.0004
     19 C          64.1107   91.7276   10.9378 C.ar    1  UNL1       -0.0027
     20 C          65.4191   92.3285   11.3586 C.ar    1  UNL1       -0.0014
     21 C          65.9474   92.0823   12.7407 C.ar    1  UNL1        0.0155
     22 C          65.1674   91.2353   13.7019 C.ar    1  UNL1        0.1344
     23 C          63.8590   90.6343   13.2811 C.ar    1  UNL1        0.0340
     24 O          65.9349   91.1682   14.9890 O.3     1  UNL1       -0.4754
     25 C          67.1892   91.9739   14.8232 C.3     1  UNL1        0.2102
     26 C          67.1970   92.5388   13.4336 C.3     1  UNL1        0.0767
@<TRIPOS>BOND
     1     6     7    1
     2     7     5    1
     3     5     1    1
     4     1     2    2
     5     1     3   am
     6     3    17    1
     7    17    18    1
     8    18    19   ar
     9    19    20   ar
    10    20    21   ar
    11    21    22   ar
    12    22    23   ar
    13    22    24    1
    14    24    25    1
    15    25    26    1
    16     7     8    1
    17     8     9    1
    18     9    10    1
    19    10    11    1
    20    11    12    1
    21    12    13    1
    22    13    14    1
    23     9    15    1
    24    15    16    1
    25    16     7    1
    26    23    18   ar
    27    14     9    1
    28    26    21    1
    29     3     4    1
