@<TRIPOS>MOLECULE
*****
 32 34 0 0 0
SMALL
GASTEIGER

@<TRIPOS>ATOM
      1 N          62.7333   89.9221   12.6364 N.am    1  UNL1       -0.2699
      2 C          61.8678   90.6520   11.6525 C.3     1  UNL1        0.1397
      3 C          61.4005   89.6648   10.6244 C.ar    1  UNL1        0.0830
      4 N          60.5243   89.8129    9.4160 N.ar    1  UNL1       -0.2524
      5 C          60.2248   88.6209    8.5560 C.ar    1  UNL1        0.0563
      6 C          59.3487   88.7691    7.3475 C.3     1  UNL1        0.0518
      7 C          60.8016   87.2808    8.9045 C.ar    1  UNL1        0.0072
      8 C          61.6778   87.1327   10.1130 C.ar    1  UNL1        0.0048
      9 C          61.9772   88.3246   10.9729 C.ar    1  UNL1        0.0686
     10 C          62.8009   88.4837   12.2164 C.2     1  UNL1        0.2505
     11 O          63.5592   87.3954   12.9168 O.2     1  UNL1       -0.2699
     12 C          62.2545   85.7926   10.4614 C.ar    1  UNL1        0.0106
     13 C          61.9281   85.1554   11.7795 C.ar    1  UNL1        0.0017
     14 C          62.5049   83.8153   12.1280 C.ar    1  UNL1        0.0114
     15 C          63.4080   83.1123   11.1584 C.ar    1  UNL1        0.0585
     16 CL         63.9847   81.7722   11.5069 Cl      1  UNL1       -0.0822
     17 C          63.7344   83.7495    9.8402 C.ar    1  UNL1        0.0228
     18 C          63.1577   85.0896    9.4917 C.ar    1  UNL1        0.0585
     19 CL         63.4841   85.7268    8.1736 Cl      1  UNL1       -0.0822
     20 C          60.5022   86.0889    8.0445 C.3     1  UNL1        0.0934
     21 N          59.1254   85.8977    7.4807 N.3     1  UNL1       -0.3174
     22 H          58.4669   85.7293    8.2413 H       1  UNL1        0.1192
     23 H          59.1253   85.0981    6.8475 H       1  UNL1        0.1192
     24 C          63.4121   90.5247   13.8306 C.3     1  UNL1        0.1037
     25 C          64.9037   90.6816   13.8457 C.3     1  UNL1        0.1067
     26 N          66.7789   92.4434   14.2056 N.am    1  UNL1       -0.2795
     27 C          65.5369   91.7519   14.6844 C.2     1  UNL1        0.2274
     28 O          64.9281   92.1308   16.0019 O.2     1  UNL1       -0.2748
     29 C          68.7230   93.2553   15.7260 C.3     1  UNL1        0.0233
     30 C          67.4121   93.5138   15.0443 C.3     1  UNL1        0.0935
     31 C          67.3878   92.0646   12.8881 C.3     1  UNL1        0.0935
     32 C          66.9089   92.7173   11.6252 C.3     1  UNL1        0.0233
@<TRIPOS>BOND
     1    29    30    1
     2    30    26    1
     3    26    31    1
     4    31    32    1
     5    26    27   am
     6    27    28    2
     7    27    25    1
     8    25    24    1
     9    24     1    1
    10     1     2    1
    11     2     3    1
    12     3     4   ar
    13     4     5   ar
    14     5     6    1
    15     5     7   ar
    16     7    20    1
    17    20    21    1
    18     7     8   ar
    19     8    12    1
    20    12    13   ar
    21    13    14   ar
    22    14    15   ar
    23    15    16    1
    24    15    17   ar
    25    17    18   ar
    26    18    19    1
    27     8     9   ar
    28     9    10    1
    29    10    11    2
    30    10     1   am
    31     9     3   ar
    32    18    12   ar
    33    21    22    1
    34    21    23    1
@<TRIPOS>MOLECULE
*****
 32 34 0 0 0
SMALL
GASTEIGER

@<TRIPOS>ATOM
      1 N          63.8892   85.8092   14.3793 N.am    1  UNL1       -0.2699
      2 C          64.5808   87.0353   14.8975 C.3     1  UNL1        0.1397
      3 C          64.2281   88.1819   13.9970 C.ar    1  UNL1        0.0830
      4 N          64.6177   89.6303   14.0168 N.ar    1  UNL1       -0.2524
      5 C          64.0977   90.5613   12.9618 C.ar    1  UNL1        0.0563
      6 C          64.4873   92.0097   12.9816 C.3     1  UNL1        0.0518
      7 C          63.1882   90.0439   11.8871 C.ar    1  UNL1        0.0072
      8 C          62.7986   88.5955   11.8673 C.ar    1  UNL1        0.0048
      9 C          63.3185   87.6645   12.9223 C.ar    1  UNL1        0.0686
     10 C          63.1091   86.1981   13.1586 C.2     1  UNL1        0.2505
     11 O          62.2673   85.2815   12.3211 O.2     1  UNL1       -0.2699
     12 C          61.8890   88.0781   10.7926 C.ar    1  UNL1        0.0106
     13 C          62.4509   87.2763    9.6563 C.ar    1  UNL1        0.0017
     14 C          61.5413   86.7589    8.5816 C.ar    1  UNL1        0.0114
     15 C          60.0699   87.0433    8.6432 C.ar    1  UNL1        0.0585
     16 CL         59.1603   86.5259    7.5685 Cl      1  UNL1       -0.0822
     17 C          59.5079   87.8451    9.7796 C.ar    1  UNL1        0.0228
     18 C          60.4175   88.3625   10.8543 C.ar    1  UNL1        0.0585
     19 CL         59.8555   89.1642   11.9907 Cl      1  UNL1       -0.0822
     20 C          62.6682   90.9749   10.8322 C.3     1  UNL1        0.0934
     21 N          63.6189   91.6262    9.8721 N.3     1  UNL1       -0.3174
     22 H          64.2289   92.2670   10.3796 H       1  UNL1        0.1192
     23 H          63.0910   92.1440    9.1695 H       1  UNL1        0.1192
     24 C          63.9645   84.4355   14.9770 C.3     1  UNL1        0.1037
     25 C          64.5271   83.2989   14.1760 C.3     1  UNL1        0.1067
     26 N          63.5992   81.9915   12.1315 N.am    1  UNL1       -0.2795
     27 C          63.6110   82.2558   13.6081 C.2     1  UNL1        0.2274
     28 O          62.7066   81.4769   14.5166 O.2     1  UNL1       -0.2748
     29 C          63.0609   80.2225   10.3065 C.3     1  UNL1        0.0233
     30 C          62.6831   80.9484   11.5636 C.3     1  UNL1        0.0935
     31 C          64.5036   82.7704   11.2230 C.3     1  UNL1        0.0935
     32 C          63.9326   83.5066   10.0473 C.3     1  UNL1        0.0233
@<TRIPOS>BOND
     1    29    30    1
     2    30    26    1
     3    26    31    1
     4    31    32    1
     5    26    27   am
     6    27    28    2
     7    27    25    1
     8    25    24    1
     9    24     1    1
    10     1     2    1
    11     2     3    1
    12     3     4   ar
    13     4     5   ar
    14     5     6    1
    15     5     7   ar
    16     7    20    1
    17    20    21    1
    18     7     8   ar
    19     8    12    1
    20    12    13   ar
    21    13    14   ar
    22    14    15   ar
    23    15    16    1
    24    15    17   ar
    25    17    18   ar
    26    18    19    1
    27     8     9   ar
    28     9    10    1
    29    10    11    2
    30    10     1   am
    31     9     3   ar
    32    18    12   ar
    33    21    22    1
    34    21    23    1
@<TRIPOS>MOLECULE
*****
 32 34 0 0 0
SMALL
GASTEIGER

@<TRIPOS>ATOM
      1 N          61.9491   90.1425   10.3646 N.am    1  UNL1       -0.2699
      2 C          62.8645   91.2791   10.0180 C.3     1  UNL1        0.1397
      3 C          63.8400   91.4488   11.1448 C.ar    1  UNL1        0.0830
      4 N          64.9725   92.4095   11.3558 N.ar    1  UNL1       -0.2524
      5 C          65.7925   92.3384   12.6099 C.ar    1  UNL1        0.0563
      6 C          66.9249   93.2992   12.8210 C.3     1  UNL1        0.0518
      7 C          65.4800   91.3066   13.6528 C.ar    1  UNL1        0.0072
      8 C          64.3475   90.3459   13.4417 C.ar    1  UNL1        0.0048
      9 C          63.5276   90.4170   12.1877 C.ar    1  UNL1        0.0686
     10 C          62.3590   89.6096   11.7055 C.2     1  UNL1        0.2505
     11 O          61.7135   88.4696   12.4360 O.2     1  UNL1       -0.2699
     12 C          64.0351   89.3140   14.4847 C.ar    1  UNL1        0.0106
     13 C          64.3377   87.8683   14.2237 C.ar    1  UNL1        0.0017
     14 C          64.0252   86.8365   15.2666 C.ar    1  UNL1        0.0114
     15 C          63.4102   87.2504   16.5705 C.ar    1  UNL1        0.0585
     16 CL         63.0977   86.2186   17.6135 Cl      1  UNL1       -0.0822
     17 C          63.1075   88.6962   16.8316 C.ar    1  UNL1        0.0228
     18 C          63.4200   89.7281   15.7887 C.ar    1  UNL1        0.0585
     19 CL         63.1174   91.1738   16.0497 Cl      1  UNL1       -0.0822
     20 C          66.3000   91.2355   14.9068 C.3     1  UNL1        0.0934
     21 N          66.2522   92.3595   15.8989 N.3     1  UNL1       -0.3174
     22 H          66.6523   93.1994   15.4807 H       1  UNL1        0.1192
     23 H          66.7883   92.1041   16.7282 H       1  UNL1        0.1192
     24 C          60.8219   89.6288    9.5187 C.3     1  UNL1        0.1037
     25 C          60.2187   88.2862    9.8077 C.3     1  UNL1        0.1067
     26 N          61.0391   86.2832    8.3707 N.am    1  UNL1       -0.2795
     27 C          59.9932   87.3094    8.6920 C.2     1  UNL1        0.2274
     28 O          58.7219   87.3587    7.8975 O.2     1  UNL1       -0.2748
     29 C          61.9843   84.7211    6.5224 C.3     1  UNL1        0.0233
     30 C          60.8136   85.3064    7.2550 C.3     1  UNL1        0.0935
     31 C          62.3104   86.2339    9.1652 C.3     1  UNL1        0.0935
     32 C          62.4020   85.3593   10.3804 C.3     1  UNL1        0.0233
@<TRIPOS>BOND
     1    29    30    1
     2    30    26    1
     3    26    31    1
     4    31    32    1
     5    26    27   am
     6    27    28    2
     7    27    25    1
     8    25    24    1
     9    24     1    1
    10     1     2    1
    11     2     3    1
    12     3     4   ar
    13     4     5   ar
    14     5     6    1
    15     5     7   ar
    16     7    20    1
    17    20    21    1
    18     7     8   ar
    19     8    12    1
    20    12    13   ar
    21    13    14   ar
    22    14    15   ar
    23    15    16    1
    24    15    17   ar
    25    17    18   ar
    26    18    19    1
    27     8     9   ar
    28     9    10    1
    29    10    11    2
    30    10     1   am
    31     9     3   ar
    32    18    12   ar
    33    21    22    1
    34    21    23    1
@<TRIPOS>MOLECULE
*****
 32 34 0 0 0
SMALL
GASTEIGER

@<TRIPOS>ATOM
      1 N          63.6717   84.7582   14.1827 N.am    1  UNL1       -0.2699
      2 C          64.3323   85.9163   14.8700 C.3     1  UNL1        0.1397
      3 C          64.0440   87.1540   14.0732 C.ar    1  UNL1        0.0830
      4 N          64.4370   88.5882   14.2695 N.ar    1  UNL1       -0.2524
      5 C          63.9910   89.6295   13.2861 C.ar    1  UNL1        0.0563
      6 C          64.3840   91.0637   13.4824 C.3     1  UNL1        0.0518
      7 C          63.1521   89.2364   12.1064 C.ar    1  UNL1        0.0072
      8 C          62.7592   87.8021   11.9101 C.ar    1  UNL1        0.0048
      9 C          63.2051   86.7609   12.8935 C.ar    1  UNL1        0.0686
     10 C          62.9750   85.2802   12.9612 C.2     1  UNL1        0.2505
     11 O          62.1866   84.4648   11.9796 O.2     1  UNL1       -0.2699
     12 C          61.9203   87.4090   10.7304 C.ar    1  UNL1        0.0106
     13 C          62.5571   86.7473    9.5444 C.ar    1  UNL1        0.0017
     14 C          61.7182   86.3542    8.3647 C.ar    1  UNL1        0.0114
     15 C          60.2425   86.6228    8.3709 C.ar    1  UNL1        0.0585
     16 CL         59.4036   86.2297    7.1912 Cl      1  UNL1       -0.0822
     17 C          59.6056   87.2845    9.5569 C.ar    1  UNL1        0.0228
     18 C          60.4445   87.6776   10.7367 C.ar    1  UNL1        0.0585
     19 CL         59.8077   88.3393   11.9226 Cl      1  UNL1       -0.0822
     20 C          62.7062   90.2775   11.1230 C.3     1  UNL1        0.0934
     21 N          61.4524   91.0608   11.3768 N.3     1  UNL1       -0.3174
     22 H          60.6475   90.4353   11.3401 H       1  UNL1        0.1192
     23 H          61.3535   91.7844   10.6648 H       1  UNL1        0.1192
     24 C          63.7023   83.3290   14.6372 C.3     1  UNL1        0.1037
     25 C          64.5074   82.3173   13.8768 C.3     1  UNL1        0.1067
     26 N          63.2006   81.0532   12.0208 N.am    1  UNL1       -0.2795
     27 C          64.2249   82.0722   12.4242 C.2     1  UNL1        0.2274
     28 O          64.9665   82.8461   11.3749 O.2     1  UNL1       -0.2748
     29 C          62.8599   79.4048   10.0418 C.3     1  UNL1        0.0233
     30 C          62.9181   80.8081   10.5682 C.3     1  UNL1        0.0935
     31 C          62.4590   80.2793   13.0701 C.3     1  UNL1        0.0935
     32 C          61.2784   80.8944   13.7616 C.3     1  UNL1        0.0233
@<TRIPOS>BOND
     1    29    30    1
     2    30    26    1
     3    26    31    1
     4    31    32    1
     5    26    27   am
     6    27    28    2
     7    27    25    1
     8    25    24    1
     9    24     1    1
    10     1     2    1
    11     2     3    1
    12     3     4   ar
    13     4     5   ar
    14     5     6    1
    15     5     7   ar
    16     7    20    1
    17    20    21    1
    18     7     8   ar
    19     8    12    1
    20    12    13   ar
    21    13    14   ar
    22    14    15   ar
    23    15    16    1
    24    15    17   ar
    25    17    18   ar
    26    18    19    1
    27     8     9   ar
    28     9    10    1
    29    10    11    2
    30    10     1   am
    31     9     3   ar
    32    18    12   ar
    33    21    22    1
    34    21    23    1
@<TRIPOS>MOLECULE
*****
 32 34 0 0 0
SMALL
GASTEIGER

@<TRIPOS>ATOM
      1 N          62.7184   90.2316   11.8979 N.am    1  UNL1       -0.2699
      2 C          62.8728   90.0447   13.3782 C.3     1  UNL1        0.1397
      3 C          63.9813   90.9408   13.8454 C.ar    1  UNL1        0.0830
      4 N          64.5760   91.1779   15.2019 N.ar    1  UNL1       -0.2524
      5 C          65.7016   92.1558   15.3669 C.ar    1  UNL1        0.0563
      6 C          66.2963   92.3930   16.7233 C.3     1  UNL1        0.0518
      7 C          66.2323   92.8964   14.1753 C.ar    1  UNL1        0.0072
      8 C          65.6375   92.6592   12.8188 C.ar    1  UNL1        0.0048
      9 C          64.5121   91.6814   12.6539 C.ar    1  UNL1        0.0686
     10 C          63.7315   91.2431   11.4503 C.2     1  UNL1        0.2505
     11 O          63.9294   91.7307   10.0456 O.2     1  UNL1       -0.2699
     12 C          66.1683   93.3998   11.6272 C.ar    1  UNL1        0.0106
     13 C          65.5342   94.6914   11.2034 C.ar    1  UNL1        0.0017
     14 C          66.0649   95.4320   10.0119 C.ar    1  UNL1        0.0114
     15 C          67.2298   94.8810    9.2441 C.ar    1  UNL1        0.0585
     16 CL         67.7605   95.6216    8.0526 Cl      1  UNL1       -0.0822
     17 C          67.8639   93.5894    9.6679 C.ar    1  UNL1        0.0228
     18 C          67.3332   92.8487   10.8595 C.ar    1  UNL1        0.0585
     19 CL         67.9673   91.5571   11.2832 Cl      1  UNL1       -0.0822
     20 C          67.3577   93.8742   14.3402 C.3     1  UNL1        0.0934
     21 N          68.7095   93.3947   14.7792 N.3     1  UNL1       -0.3174
     22 H          68.6508   93.0395   15.7336 H       1  UNL1        0.1192
     23 H          69.3726   94.1690   14.7449 H       1  UNL1        0.1192
     24 C          61.7252   89.5301   11.0196 C.3     1  UNL1        0.1037
     25 C          62.1524   88.3498   10.1984 C.3     1  UNL1        0.1067
     26 N          62.2602   85.7587   10.0408 N.am    1  UNL1       -0.2795
     27 C          62.3588   87.0160   10.8530 C.2     1  UNL1        0.2274
     28 O          62.6639   86.9395   12.3196 O.2     1  UNL1       -0.2748
     29 C          63.8375   83.8181   10.7453 C.3     1  UNL1        0.0233
     30 C          62.4666   84.4249   10.6953 C.3     1  UNL1        0.0935
     31 C          61.9551   85.8352    8.5742 C.3     1  UNL1        0.0935
     32 C          62.7301   84.9958    7.6021 C.3     1  UNL1        0.0233
@<TRIPOS>BOND
     1    29    30    1
     2    30    26    1
     3    26    31    1
     4    31    32    1
     5    26    27   am
     6    27    28    2
     7    27    25    1
     8    25    24    1
     9    24     1    1
    10     1     2    1
    11     2     3    1
    12     3     4   ar
    13     4     5   ar
    14     5     6    1
    15     5     7   ar
    16     7    20    1
    17    20    21    1
    18     7     8   ar
    19     8    12    1
    20    12    13   ar
    21    13    14   ar
    22    14    15   ar
    23    15    16    1
    24    15    17   ar
    25    17    18   ar
    26    18    19    1
    27     8     9   ar
    28     9    10    1
    29    10    11    2
    30    10     1   am
    31     9     3   ar
    32    18    12   ar
    33    21    22    1
    34    21    23    1
@<TRIPOS>MOLECULE
*****
 32 34 0 0 0
SMALL
GASTEIGER

@<TRIPOS>ATOM
      1 N          64.1370   90.8836   12.4248 N.am    1  UNL1       -0.2699
      2 C          64.6567   90.1991   13.6543 C.3     1  UNL1        0.1397
      3 C          64.1873   88.7747   13.6253 C.ar    1  UNL1        0.0830
      4 N          64.3927   87.6308   14.5735 N.ar    1  UNL1       -0.2524
      5 C          63.7882   86.2909   14.2744 C.ar    1  UNL1        0.0563
      6 C          63.9936   85.1470   15.2226 C.3     1  UNL1        0.0518
      7 C          62.9785   86.0950   13.0270 C.ar    1  UNL1        0.0072
      8 C          62.7732   87.2390   12.0787 C.ar    1  UNL1        0.0048
      9 C          63.3776   88.5789   12.3779 C.ar    1  UNL1        0.0686
     10 C          63.3465   89.8822   11.6360 C.2     1  UNL1        0.2505
     11 O          62.6476   90.1390   10.3338 O.2     1  UNL1       -0.2699
     12 C          61.9635   87.0431   10.8313 C.ar    1  UNL1        0.0106
     13 C          62.5412   86.2843    9.6736 C.ar    1  UNL1        0.0017
     14 C          61.7314   86.0884    8.4262 C.ar    1  UNL1        0.0114
     15 C          60.3440   86.6514    8.3366 C.ar    1  UNL1        0.0585
     16 CL         59.5343   86.4555    7.0892 Cl      1  UNL1       -0.0822
     17 C          59.7662   87.4102    9.4943 C.ar    1  UNL1        0.0228
     18 C          60.5760   87.6061   10.7417 C.ar    1  UNL1        0.0585
     19 CL         59.9983   88.3650   11.8994 Cl      1  UNL1       -0.0822
     20 C          62.3741   84.7552   12.7279 C.3     1  UNL1        0.0934
     21 N          63.1928   83.6980   12.0481 N.3     1  UNL1       -0.3174
     22 H          63.4176   83.9994   11.0999 H       1  UNL1        0.1192
     23 H          62.6618   82.8280   12.0114 H       1  UNL1        0.1192
     24 C          64.3674   92.3176   12.0501 C.3     1  UNL1        0.1037
     25 C          65.6887   92.9657   12.3402 C.3     1  UNL1        0.1067
     26 N          67.0877   93.8293   10.3285 N.am    1  UNL1       -0.2795
     27 C          66.1718   94.0996   11.4853 C.2     1  UNL1        0.2274
     28 O          65.7390   95.5037   11.7871 O.2     1  UNL1       -0.2748
     29 C          66.8365   95.3192    8.2150 C.3     1  UNL1        0.0233
     30 C          67.5707   94.9632    9.4735 C.3     1  UNL1        0.0935
     31 C          67.5204   92.4252   10.0266 C.3     1  UNL1        0.0935
     32 C          68.6342   92.1765    9.0530 C.3     1  UNL1        0.0233
@<TRIPOS>BOND
     1    29    30    1
     2    30    26    1
     3    26    31    1
     4    31    32    1
     5    26    27   am
     6    27    28    2
     7    27    25    1
     8    25    24    1
     9    24     1    1
    10     1     2    1
    11     2     3    1
    12     3     4   ar
    13     4     5   ar
    14     5     6    1
    15     5     7   ar
    16     7    20    1
    17    20    21    1
    18     7     8   ar
    19     8    12    1
    20    12    13   ar
    21    13    14   ar
    22    14    15   ar
    23    15    16    1
    24    15    17   ar
    25    17    18   ar
    26    18    19    1
    27     8     9   ar
    28     9    10    1
    29    10    11    2
    30    10     1   am
    31     9     3   ar
    32    18    12   ar
    33    21    22    1
    34    21    23    1
@<TRIPOS>MOLECULE
*****
 32 34 0 0 0
SMALL
GASTEIGER

@<TRIPOS>ATOM
      1 N          62.1634   90.4490   10.5109 N.am    1  UNL1       -0.2699
      2 C          63.1776   91.4978   10.1626 C.3     1  UNL1        0.1397
      3 C          64.1583   91.5882   11.2940 C.ar    1  UNL1        0.0830
      4 N          65.3702   92.4464   11.5056 N.ar    1  UNL1       -0.2524
      5 C          66.1741   92.3117   12.7649 C.ar    1  UNL1        0.0563
      6 C          67.3859   93.1698   12.9765 C.3     1  UNL1        0.0518
      7 C          65.7659   91.3187   13.8125 C.ar    1  UNL1        0.0072
      8 C          64.5540   90.4605   13.6009 C.ar    1  UNL1        0.0048
      9 C          63.7502   90.5953   12.3416 C.ar    1  UNL1        0.0686
     10 C          62.5173   89.8913   11.8577 C.2     1  UNL1        0.2505
     11 O          61.7695   88.8179   12.5916 O.2     1  UNL1       -0.2699
     12 C          64.1459   89.4676   14.6485 C.ar    1  UNL1        0.0106
     13 C          64.3754   88.0025   14.4232 C.ar    1  UNL1        0.0017
     14 C          63.9673   87.0096   15.4708 C.ar    1  UNL1        0.0114
     15 C          63.3296   87.4818   16.7437 C.ar    1  UNL1        0.0585
     16 CL         62.9215   86.4888   17.7914 Cl      1  UNL1       -0.0822
     17 C          63.1000   88.9469   16.9691 C.ar    1  UNL1        0.0228
     18 C          63.5082   89.9398   15.9215 C.ar    1  UNL1        0.0585
     19 CL         63.2786   91.4049   16.1468 Cl      1  UNL1       -0.0822
     20 C          66.5697   91.1840   15.0718 C.3     1  UNL1        0.0934
     21 N          66.6498   92.3297   16.0366 N.3     1  UNL1       -0.3174
     22 H          67.1450   93.1075   15.6004 H       1  UNL1        0.1192
     23 H          67.1512   92.0343   16.8743 H       1  UNL1        0.1192
     24 C          60.9996   90.0314    9.6617 C.3     1  UNL1        0.1037
     25 C          60.1757   88.8402   10.0519 C.3     1  UNL1        0.1067
     26 N          59.8198   87.1110    8.1457 N.am    1  UNL1       -0.2795
     27 C          60.4620   87.4988    9.4447 C.2     1  UNL1        0.2274
     28 O          61.3906   86.5452   10.1364 O.2     1  UNL1       -0.2748
     29 C          61.5155   85.3862    7.1974 C.3     1  UNL1        0.0233
     30 C          60.1061   85.7696    7.5385 C.3     1  UNL1        0.0935
     31 C          58.8912   88.0646    7.4541 C.3     1  UNL1        0.0935
     32 C          59.4429   89.1195    6.5413 C.3     1  UNL1        0.0233
@<TRIPOS>BOND
     1    29    30    1
     2    30    26    1
     3    26    31    1
     4    31    32    1
     5    26    27   am
     6    27    28    2
     7    27    25    1
     8    25    24    1
     9    24     1    1
    10     1     2    1
    11     2     3    1
    12     3     4   ar
    13     4     5   ar
    14     5     6    1
    15     5     7   ar
    16     7    20    1
    17    20    21    1
    18     7     8   ar
    19     8    12    1
    20    12    13   ar
    21    13    14   ar
    22    14    15   ar
    23    15    16    1
    24    15    17   ar
    25    17    18   ar
    26    18    19    1
    27     8     9   ar
    28     9    10    1
    29    10    11    2
    30    10     1   am
    31     9     3   ar
    32    18    12   ar
    33    21    22    1
    34    21    23    1
@<TRIPOS>MOLECULE
*****
 32 34 0 0 0
SMALL
GASTEIGER

@<TRIPOS>ATOM
      1 N          63.6277   89.5413   13.0152 N.am    1  UNL1       -0.2699
      2 C          63.9774   88.7594   14.2466 C.3     1  UNL1        0.1397
      3 C          63.7447   87.3065   13.9549 C.ar    1  UNL1        0.0830
      4 N          63.9185   86.0743   14.7923 N.ar    1  UNL1       -0.2524
      5 C          63.5987   84.7259   14.2180 C.ar    1  UNL1        0.0563
      6 C          63.7724   83.4937   15.0555 C.3     1  UNL1        0.0518
      7 C          63.1051   84.6099   12.8063 C.ar    1  UNL1        0.0072
      8 C          62.9313   85.8422   11.9689 C.ar    1  UNL1        0.0048
      9 C          63.2511   87.1905   12.5432 C.ar    1  UNL1        0.0686
     10 C          63.1788   88.5716   11.9624 C.2     1  UNL1        0.2505
     11 O          62.7354   88.9216   10.5729 O.2     1  UNL1       -0.2699
     12 C          62.4377   85.7262   10.5572 C.ar    1  UNL1        0.0106
     13 C          63.2724   85.0263    9.5260 C.ar    1  UNL1        0.0017
     14 C          62.7788   84.9103    8.1143 C.ar    1  UNL1        0.0114
     15 C          61.4505   85.4941    7.7338 C.ar    1  UNL1        0.0585
     16 CL         60.9569   85.3781    6.3221 Cl      1  UNL1       -0.0822
     17 C          60.6158   86.1941    8.7650 C.ar    1  UNL1        0.0228
     18 C          61.1094   86.3101   10.1767 C.ar    1  UNL1        0.0585
     19 CL         60.2747   87.0100   11.2079 Cl      1  UNL1       -0.0822
     20 C          62.7853   83.2616   12.2321 C.3     1  UNL1        0.0934
     21 N          63.8893   82.3799   11.7285 N.3     1  UNL1       -0.3174
     22 H          64.3259   82.8128   10.9147 H       1  UNL1        0.1192
     23 H          63.5062   81.4717   11.4660 H       1  UNL1        0.1192
     24 C          63.7120   91.0312   12.8632 C.3     1  UNL1        0.1037
     25 C          65.0331   91.7264   13.0093 C.3     1  UNL1        0.1067
     26 N          66.2426   93.9519   12.4312 N.am    1  UNL1       -0.2795
     27 C          65.4584   92.7489   11.9976 C.2     1  UNL1        0.2274
     28 O          65.0997   92.5684   10.5524 O.2     1  UNL1       -0.2748
     29 C          65.7352   96.0855   11.0383 C.3     1  UNL1        0.0233
     30 C          66.6680   94.9744   11.4195 C.3     1  UNL1        0.0935
     31 C          66.6014   94.1323   13.8764 C.3     1  UNL1        0.0935
     32 C          67.5751   93.1969   14.5300 C.3     1  UNL1        0.0233
@<TRIPOS>BOND
     1    29    30    1
     2    30    26    1
     3    26    31    1
     4    31    32    1
     5    26    27   am
     6    27    28    2
     7    27    25    1
     8    25    24    1
     9    24     1    1
    10     1     2    1
    11     2     3    1
    12     3     4   ar
    13     4     5   ar
    14     5     6    1
    15     5     7   ar
    16     7    20    1
    17    20    21    1
    18     7     8   ar
    19     8    12    1
    20    12    13   ar
    21    13    14   ar
    22    14    15   ar
    23    15    16    1
    24    15    17   ar
    25    17    18   ar
    26    18    19    1
    27     8     9   ar
    28     9    10    1
    29    10    11    2
    30    10     1   am
    31     9     3   ar
    32    18    12   ar
    33    21    22    1
    34    21    23    1
@<TRIPOS>MOLECULE
*****
 32 34 0 0 0
SMALL
GASTEIGER

@<TRIPOS>ATOM
      1 N          63.8139   89.7741   13.0803 N.am    1  UNL1       -0.2699
      2 C          64.1965   88.9875   14.2988 C.3     1  UNL1        0.1397
      3 C          63.8932   87.5428   14.0321 C.ar    1  UNL1        0.0830
      4 N          64.0625   86.3104   14.8701 N.ar    1  UNL1       -0.2524
      5 C          63.6617   84.9717   14.3248 C.ar    1  UNL1        0.0563
      6 C          63.8310   83.7393   15.1629 C.3     1  UNL1        0.0518
      7 C          63.0916   84.8655   12.9414 C.ar    1  UNL1        0.0072
      8 C          62.9223   86.0981   12.1034 C.ar    1  UNL1        0.0048
      9 C          63.3231   87.4367   12.6487 C.ar    1  UNL1        0.0686
     10 C          63.2741   88.8157   12.0605 C.2     1  UNL1        0.2505
     11 O          62.7732   89.1734   10.6926 O.2     1  UNL1       -0.2699
     12 C          62.3522   85.9919   10.7200 C.ar    1  UNL1        0.0106
     13 C          63.1234   85.2883    9.6429 C.ar    1  UNL1        0.0017
     14 C          62.5533   85.1821    8.2596 C.ar    1  UNL1        0.0114
     15 C          61.2120   85.7796    7.9532 C.ar    1  UNL1        0.0585
     16 CL         60.6419   85.6734    6.5699 Cl      1  UNL1       -0.0822
     17 C          60.4407   86.4832    9.0303 C.ar    1  UNL1        0.0228
     18 C          61.0108   86.5894   10.4137 C.ar    1  UNL1        0.0585
     19 CL         60.2396   87.2930   11.4908 Cl      1  UNL1       -0.0822
     20 C          62.6908   83.5269   12.3961 C.3     1  UNL1        0.0934
     21 N          63.7336   82.5956   11.8530 N.3     1  UNL1       -0.3174
     22 H          64.1506   83.0030   11.0160 H       1  UNL1        0.1192
     23 H          63.3019   81.7020   11.6173 H       1  UNL1        0.1192
     24 C          63.9476   91.2586   12.9113 C.3     1  UNL1        0.1037
     25 C          65.2868   91.8610   12.6058 C.3     1  UNL1        0.1067
     26 N          67.6395   92.2328   13.6437 N.am    1  UNL1       -0.2795
     27 C          66.1484   92.3779   13.7196 C.2     1  UNL1        0.2274
     28 O          65.5189   93.0398   14.9094 O.2     1  UNL1       -0.2748
     29 C          68.3994   92.1453   16.1266 C.3     1  UNL1        0.0233
     30 C          68.5010   92.7497   14.7575 C.3     1  UNL1        0.0935
     31 C          68.2689   91.5709   12.4539 C.3     1  UNL1        0.0935
     32 C          68.1771   92.2141   11.1019 C.3     1  UNL1        0.0233
@<TRIPOS>BOND
     1    29    30    1
     2    30    26    1
     3    26    31    1
     4    31    32    1
     5    26    27   am
     6    27    28    2
     7    27    25    1
     8    25    24    1
     9    24     1    1
    10     1     2    1
    11     2     3    1
    12     3     4   ar
    13     4     5   ar
    14     5     6    1
    15     5     7   ar
    16     7    20    1
    17    20    21    1
    18     7     8   ar
    19     8    12    1
    20    12    13   ar
    21    13    14   ar
    22    14    15   ar
    23    15    16    1
    24    15    17   ar
    25    17    18   ar
    26    18    19    1
    27     8     9   ar
    28     9    10    1
    29    10    11    2
    30    10     1   am
    31     9     3   ar
    32    18    12   ar
    33    21    22    1
    34    21    23    1
