@<TRIPOS>MOLECULE
*****
 34 38 0 0 0
SMALL
GASTEIGER

@<TRIPOS>ATOM
      1 C          63.0653   86.3105   12.6990 C.2     1  UNL1        0.2507
      2 O          63.5898   87.2221   13.7685 O.2     1  UNL1       -0.2698
      3 N          62.3400   86.8809   11.5164 N.am    1  UNL1       -0.2723
      4 C          61.8155   85.9692   10.4470 C.3     1  UNL1        0.1257
      5 C          61.0903   86.5396    9.2644 C.3     1  UNL1        0.1637
      6 O          60.8895   88.0219    9.1512 O.3     1  UNL1       -0.3502
      7 C          61.4140   88.9336   10.2206 C.3     1  UNL1        0.1622
      8 C          62.1393   88.3631   11.4032 C.3     1  UNL1        0.1096
      9 C          63.7031   82.5250   11.6926 C.ar    1  UNL1        0.1662
     10 C          63.5024   84.0071   11.5794 C.ar    1  UNL1        0.0453
     11 C          63.2660   84.8282   12.8122 C.ar    1  UNL1        0.0761
     12 C          63.2304   84.1672   14.1582 C.ar    1  UNL1        0.1097
     13 C          63.4312   82.6850   14.2714 C.ar    1  UNL1        0.0538
     14 C          63.6675   81.8639   13.0386 C.ar    1  UNL1        0.1754
     15 F          63.8683   80.3817   13.1518 F       1  UNL1       -0.2009
     16 N          62.9941   84.9884   15.3911 N.ar    1  UNL1       -0.1476
     17 N          61.6702   85.2152   16.0589 N.ar    1  UNL1       -0.1447
     18 C          61.8979   86.0939   17.2531 C.ar    1  UNL1        0.1446
     19 C          63.3626   86.4101   17.3233 C.ar    1  UNL1        0.1446
     20 N          64.0400   85.7269   16.1725 N.ar    1  UNL1       -0.1447
     21 C          63.0542   80.5309   10.1587 C.3     1  UNL1        0.2526
     22 O          63.9395   81.7038   10.4597 O.3     1  UNL1       -0.4692
     23 C          62.6638   89.2749   12.4727 C.3     1  UNL1        0.0488
     24 C          63.5971   90.3929   12.1137 C.ar    1  UNL1       -0.0189
     25 C          63.4952   91.0529   10.7706 C.ar    1  UNL1       -0.0041
     26 C          64.4285   92.1710   10.4117 C.ar    1  UNL1        0.0013
     27 C          65.4637   92.6291   11.3959 C.ar    1  UNL1        0.0209
     28 C          65.5656   91.9690   12.7390 C.ar    1  UNL1        0.1026
     29 C          64.6322   90.8509   13.0979 C.ar    1  UNL1        0.0167
     30 N          66.6007   92.4270   13.7231 N.ar    1  UNL1       -0.1478
     31 N          68.0613   92.0869   13.6890 N.ar    1  UNL1       -0.1447
     32 C          68.7204   92.7553   14.8590 C.ar    1  UNL1        0.1446
     33 C          67.6671   93.5084   15.6163 C.ar    1  UNL1        0.1446
     34 N          66.3571   93.3056   14.9143 N.ar    1  UNL1       -0.1447
@<TRIPOS>BOND
     1    21    22    1
     2    22     9    1
     3     9    10   ar
     4    10    11   ar
     5    11     1    1
     6     1     2    2
     7     1     3   am
     8     3     4    1
     9     4     5    1
    10     5     6    1
    11     6     7    1
    12     7     8    1
    13     8    23    1
    14    23    24    1
    15    24    25   ar
    16    25    26   ar
    17    26    27   ar
    18    27    28   ar
    19    28    30    1
    20    30    31   ar
    21    31    32   ar
    22    32    33   ar
    23    33    34   ar
    24    28    29   ar
    25    11    12   ar
    26    12    16    1
    27    16    17   ar
    28    17    18   ar
    29    18    19   ar
    30    19    20   ar
    31    12    13   ar
    32    13    14   ar
    33    14    15    1
    34    14     9   ar
    35     8     3    1
    36    29    24   ar
    37    20    16   ar
    38    34    30   ar
@<TRIPOS>MOLECULE
*****
 34 38 0 0 0
SMALL
GASTEIGER

@<TRIPOS>ATOM
      1 C          62.6454   88.5359   11.5313 C.2     1  UNL1        0.2507
      2 O          62.6354   90.0353   11.4891 O.2     1  UNL1       -0.2698
      3 N          63.3015   87.8222   12.6759 N.am    1  UNL1       -0.2723
      4 C          63.3116   86.3228   12.7180 C.3     1  UNL1        0.1257
      5 C          63.9677   85.6091   13.8626 C.3     1  UNL1        0.1637
      6 O          64.6137   86.3948   14.9651 O.3     1  UNL1       -0.3502
      7 C          64.6037   87.8941   14.9229 C.3     1  UNL1        0.1622
      8 C          63.9476   88.6078   13.7783 C.3     1  UNL1        0.1096
      9 C          62.1588   85.9726    8.5409 C.ar    1  UNL1        0.1662
     10 C          62.8048   86.7582    9.6433 C.ar    1  UNL1        0.0453
     11 C          61.9994   87.7502   10.4288 C.ar    1  UNL1        0.0761
     12 C          60.5478   87.9566   10.1119 C.ar    1  UNL1        0.1097
     13 C          59.9017   87.1710    9.0095 C.ar    1  UNL1        0.0538
     14 C          60.7072   86.1790    8.2240 C.ar    1  UNL1        0.1754
     15 F          60.0611   85.3933    7.1215 F       1  UNL1       -0.2009
     16 N          59.7423   88.9487   10.8975 N.ar    1  UNL1       -0.1476
     17 N          58.9972   88.6699   12.1692 N.ar    1  UNL1       -0.1447
     18 C          58.3349   89.9425   12.6070 C.ar    1  UNL1        0.1446
     19 C          58.6708   91.0079   11.6058 C.ar    1  UNL1        0.1446
     20 N          59.5406   90.3937   10.5494 N.ar    1  UNL1       -0.1447
     21 C          62.5154   84.5672    6.3850 C.3     1  UNL1        0.2526
     22 O          62.9642   84.9805    7.7553 O.3     1  UNL1       -0.4692
     23 C          63.9375   90.1073   13.7361 C.3     1  UNL1        0.0488
     24 C          65.2312   90.8648   13.6846 C.ar    1  UNL1       -0.0189
     25 C          66.1638   90.8371   14.8590 C.ar    1  UNL1       -0.0041
     26 C          67.4574   91.5946   14.8075 C.ar    1  UNL1        0.0013
     27 C          67.8184   92.3799   13.5814 C.ar    1  UNL1        0.0209
     28 C          66.8857   92.4076   12.4070 C.ar    1  UNL1        0.1026
     29 C          65.5921   91.6500   12.4586 C.ar    1  UNL1        0.0167
     30 N          67.2467   93.1928   11.1810 N.ar    1  UNL1       -0.1478
     31 N          68.0109   92.6778    9.9974 N.ar    1  UNL1       -0.1447
     32 C          68.1433   93.7976    9.0082 C.ar    1  UNL1        0.1446
     33 C          67.4608   95.0046    9.5804 C.ar    1  UNL1        0.1446
     34 N          66.9067   94.6308   10.9233 N.ar    1  UNL1       -0.1447
@<TRIPOS>BOND
     1    21    22    1
     2    22     9    1
     3     9    10   ar
     4    10    11   ar
     5    11     1    1
     6     1     2    2
     7     1     3   am
     8     3     4    1
     9     4     5    1
    10     5     6    1
    11     6     7    1
    12     7     8    1
    13     8    23    1
    14    23    24    1
    15    24    25   ar
    16    25    26   ar
    17    26    27   ar
    18    27    28   ar
    19    28    30    1
    20    30    31   ar
    21    31    32   ar
    22    32    33   ar
    23    33    34   ar
    24    28    29   ar
    25    11    12   ar
    26    12    16    1
    27    16    17   ar
    28    17    18   ar
    29    18    19   ar
    30    19    20   ar
    31    12    13   ar
    32    13    14   ar
    33    14    15    1
    34    14     9   ar
    35     8     3    1
    36    29    24   ar
    37    20    16   ar
    38    34    30   ar
@<TRIPOS>MOLECULE
*****
 34 38 0 0 0
SMALL
GASTEIGER

@<TRIPOS>ATOM
      1 C          63.1092   87.2479   12.4987 C.2     1  UNL1        0.2507
      2 O          63.7525   87.6072   13.8052 O.2     1  UNL1       -0.2698
      3 N          62.4412   88.3085   11.6748 N.am    1  UNL1       -0.2723
      4 C          61.7978   87.9490   10.3683 C.3     1  UNL1        0.1257
      5 C          61.1298   89.0096    9.5443 C.3     1  UNL1        0.1637
      6 O          61.1051   90.4297   10.0270 O.3     1  UNL1       -0.3502
      7 C          61.7484   90.7891   11.3335 C.3     1  UNL1        0.1622
      8 C          62.4164   89.7285   12.1574 C.3     1  UNL1        0.1096
      9 C          63.1836   84.1160   10.0624 C.ar    1  UNL1        0.1662
     10 C          63.1589   85.5360   10.5450 C.ar    1  UNL1        0.0453
     11 C          63.1339   85.8278   12.0161 C.ar    1  UNL1        0.0761
     12 C          63.1336   84.6996   13.0046 C.ar    1  UNL1        0.1097
     13 C          63.1583   83.2796   12.5220 C.ar    1  UNL1        0.0538
     14 C          63.1833   82.9878   11.0509 C.ar    1  UNL1        0.1754
     15 F          63.2080   81.5677   10.5683 F       1  UNL1       -0.2009
     16 N          63.1087   84.9915   14.4758 N.ar    1  UNL1       -0.1476
     17 N          61.8992   84.9518   15.3621 N.ar    1  UNL1       -0.1447
     18 C          62.3317   85.3101   16.7529 C.ar    1  UNL1        0.1446
     19 C          63.8086   85.5711   16.7262 C.ar    1  UNL1        0.1446
     20 N          64.2888   85.3742   15.3189 N.ar    1  UNL1       -0.1447
     21 C          62.8019   84.8829    7.6096 C.3     1  UNL1        0.2526
     22 O          63.2085   83.8241    8.5912 O.3     1  UNL1       -0.4692
     23 C          63.0598   90.0879   13.4639 C.3     1  UNL1        0.0488
     24 C          64.3677   90.8221   13.4790 C.ar    1  UNL1       -0.0189
     25 C          65.3042   90.6621   14.6398 C.ar    1  UNL1       -0.0041
     26 C          66.6122   91.3963   14.6548 C.ar    1  UNL1        0.0013
     27 C          66.9837   92.2904   13.5091 C.ar    1  UNL1        0.0209
     28 C          66.0471   92.4504   12.3484 C.ar    1  UNL1        0.1026
     29 C          64.7391   91.7162   12.3333 C.ar    1  UNL1        0.0167
     30 N          66.4185   93.3444   11.2027 N.ar    1  UNL1       -0.1478
     31 N          65.6963   94.5919   10.7877 N.ar    1  UNL1       -0.1447
     32 C          66.4088   95.1665    9.5994 C.ar    1  UNL1        0.1446
     33 C          67.5714   94.2741    9.2799 C.ar    1  UNL1        0.1446
     34 N          67.5774   93.1480   10.2708 N.ar    1  UNL1       -0.1447
@<TRIPOS>BOND
     1    21    22    1
     2    22     9    1
     3     9    10   ar
     4    10    11   ar
     5    11     1    1
     6     1     2    2
     7     1     3   am
     8     3     4    1
     9     4     5    1
    10     5     6    1
    11     6     7    1
    12     7     8    1
    13     8    23    1
    14    23    24    1
    15    24    25   ar
    16    25    26   ar
    17    26    27   ar
    18    27    28   ar
    19    28    30    1
    20    30    31   ar
    21    31    32   ar
    22    32    33   ar
    23    33    34   ar
    24    28    29   ar
    25    11    12   ar
    26    12    16    1
    27    16    17   ar
    28    17    18   ar
    29    18    19   ar
    30    19    20   ar
    31    12    13   ar
    32    13    14   ar
    33    14    15    1
    34    14     9   ar
    35     8     3    1
    36    29    24   ar
    37    20    16   ar
    38    34    30   ar
@<TRIPOS>MOLECULE
*****
 34 38 0 0 0
SMALL
GASTEIGER

@<TRIPOS>ATOM
      1 C          63.3866   87.9304   13.1979 C.2     1  UNL1        0.2507
      2 O          63.5992   89.0522   12.2251 O.2     1  UNL1       -0.2698
      3 N          63.3353   88.2140   14.6700 N.am    1  UNL1       -0.2723
      4 C          63.1228   87.0922   15.6429 C.3     1  UNL1        0.1257
      5 C          63.0714   87.3757   17.1150 C.3     1  UNL1        0.1637
      6 O          63.2326   88.7810   17.6141 O.3     1  UNL1       -0.3502
      7 C          63.4452   89.9028   16.6413 C.3     1  UNL1        0.1622
      8 C          63.4965   89.6192   15.1692 C.3     1  UNL1        0.1096
      9 C          63.8145   83.9997   12.8570 C.ar    1  UNL1        0.1662
     10 C          63.9757   85.4050   13.3562 C.ar    1  UNL1        0.0453
     11 C          63.2254   86.5251   12.6988 C.ar    1  UNL1        0.0761
     12 C          62.3139   86.2400   11.5421 C.ar    1  UNL1        0.1097
     13 C          62.1527   84.8347   11.0429 C.ar    1  UNL1        0.0538
     14 C          62.9029   83.7146   11.7004 C.ar    1  UNL1        0.1754
     15 F          62.7417   82.3093   11.2012 F       1  UNL1       -0.2009
     16 N          61.5636   87.3602   10.8846 N.ar    1  UNL1       -0.1476
     17 N          60.3787   88.0819   11.4549 N.ar    1  UNL1       -0.1447
     18 C          59.9492   89.1231   10.4643 C.ar    1  UNL1        0.1446
     19 C          60.8687   89.0449    9.2817 C.ar    1  UNL1        0.1446
     20 N          61.8664   87.9554    9.5415 N.ar    1  UNL1       -0.1447
     21 C          63.8432   81.6268   13.9146 C.3     1  UNL1        0.2526
     22 O          64.5648   82.8795   13.5145 O.3     1  UNL1       -0.4692
     23 C          63.7091   90.7410   14.1963 C.3     1  UNL1        0.0488
     24 C          65.0864   91.2934   13.9777 C.ar    1  UNL1       -0.0189
     25 C          66.1551   91.0725   15.0069 C.ar    1  UNL1       -0.0041
     26 C          67.5324   91.6249   14.7883 C.ar    1  UNL1        0.0013
     27 C          67.8411   92.3981   13.5405 C.ar    1  UNL1        0.0209
     28 C          66.7724   92.6190   12.5114 C.ar    1  UNL1        0.1026
     29 C          65.3950   92.0666   12.7300 C.ar    1  UNL1        0.0167
     30 N          67.0811   93.3922   11.2637 N.ar    1  UNL1       -0.1478
     31 N          67.7785   92.8605   10.0467 N.ar    1  UNL1       -0.1447
     32 C          67.8749   93.9725    9.0447 C.ar    1  UNL1        0.1446
     33 C          67.2371   95.1916    9.6424 C.ar    1  UNL1        0.1446
     34 N          66.7465   94.8329   11.0138 N.ar    1  UNL1       -0.1447
@<TRIPOS>BOND
     1    21    22    1
     2    22     9    1
     3     9    10   ar
     4    10    11   ar
     5    11     1    1
     6     1     2    2
     7     1     3   am
     8     3     4    1
     9     4     5    1
    10     5     6    1
    11     6     7    1
    12     7     8    1
    13     8    23    1
    14    23    24    1
    15    24    25   ar
    16    25    26   ar
    17    26    27   ar
    18    27    28   ar
    19    28    30    1
    20    30    31   ar
    21    31    32   ar
    22    32    33   ar
    23    33    34   ar
    24    28    29   ar
    25    11    12   ar
    26    12    16    1
    27    16    17   ar
    28    17    18   ar
    29    18    19   ar
    30    19    20   ar
    31    12    13   ar
    32    13    14   ar
    33    14    15    1
    34    14     9   ar
    35     8     3    1
    36    29    24   ar
    37    20    16   ar
    38    34    30   ar
@<TRIPOS>MOLECULE
*****
 34 38 0 0 0
SMALL
GASTEIGER

@<TRIPOS>ATOM
      1 C          62.8290   89.0003   11.9280 C.2     1  UNL1        0.2507
      2 O          62.9151   87.7579   12.7639 O.2     1  UNL1       -0.2698
      3 N          61.8629   89.0682   10.7826 N.am    1  UNL1       -0.2723
      4 C          61.7768   90.3108    9.9467 C.3     1  UNL1        0.1257
      5 C          60.8107   90.3787    8.8012 C.3     1  UNL1        0.1637
      6 O          59.9307   89.2040    8.4917 O.3     1  UNL1       -0.3502
      7 C          60.0168   87.9615    9.3276 C.3     1  UNL1        0.1622
      8 C          60.9829   87.8936   10.4730 C.3     1  UNL1        0.1096
      9 C          64.9642   92.3127   11.4601 C.ar    1  UNL1        0.1662
     10 C          64.0842   91.1381   11.1505 C.ar    1  UNL1        0.0453
     11 C          63.7090   90.1751   12.2375 C.ar    1  UNL1        0.0761
     12 C          64.2137   90.3866   13.6341 C.ar    1  UNL1        0.1097
     13 C          65.0937   91.5613   13.9437 C.ar    1  UNL1        0.0538
     14 C          65.4689   92.5243   12.8567 C.ar    1  UNL1        0.1754
     15 F          66.3489   93.6990   13.1662 F       1  UNL1       -0.2009
     16 N          63.8384   89.4235   14.7212 N.ar    1  UNL1       -0.1476
     17 N          62.8719   89.6871   15.8377 N.ar    1  UNL1       -0.1447
     18 C          62.7999   88.4543   16.6891 C.ar    1  UNL1        0.1446
     19 C          63.7219   87.4288   16.0989 C.ar    1  UNL1        0.1446
     20 N          64.3637   88.0278   14.8826 N.ar    1  UNL1       -0.1447
     21 C          66.7710   93.4000    9.9423 C.3     1  UNL1        0.2526
     22 O          65.3395   93.2758   10.3730 O.3     1  UNL1       -0.4692
     23 C          61.0690   86.6510   11.3089 C.3     1  UNL1        0.0488
     24 C          61.9546   85.5187   10.8804 C.ar    1  UNL1       -0.0189
     25 C          62.6536   85.5737    9.5544 C.ar    1  UNL1       -0.0041
     26 C          63.5391   84.4414    9.1259 C.ar    1  UNL1        0.0013
     27 C          63.7257   83.2541   10.0234 C.ar    1  UNL1        0.0209
     28 C          63.0267   83.1991   11.3495 C.ar    1  UNL1        0.1026
     29 C          62.1411   84.3315   11.7779 C.ar    1  UNL1        0.0167
     30 N          63.2132   82.0118   12.2470 N.ar    1  UNL1       -0.1478
     31 N          64.2041   81.9007   13.3676 N.ar    1  UNL1       -0.1447
     32 C          64.0449   80.5474   13.9947 C.ar    1  UNL1        0.1446
     33 C          62.9555   79.8222   13.2616 C.ar    1  UNL1        0.1446
     34 N          62.4415   80.7272   12.1815 N.ar    1  UNL1       -0.1447
@<TRIPOS>BOND
     1    21    22    1
     2    22     9    1
     3     9    10   ar
     4    10    11   ar
     5    11     1    1
     6     1     2    2
     7     1     3   am
     8     3     4    1
     9     4     5    1
    10     5     6    1
    11     6     7    1
    12     7     8    1
    13     8    23    1
    14    23    24    1
    15    24    25   ar
    16    25    26   ar
    17    26    27   ar
    18    27    28   ar
    19    28    30    1
    20    30    31   ar
    21    31    32   ar
    22    32    33   ar
    23    33    34   ar
    24    28    29   ar
    25    11    12   ar
    26    12    16    1
    27    16    17   ar
    28    17    18   ar
    29    18    19   ar
    30    19    20   ar
    31    12    13   ar
    32    13    14   ar
    33    14    15    1
    34    14     9   ar
    35     8     3    1
    36    29    24   ar
    37    20    16   ar
    38    34    30   ar
