@<TRIPOS>MOLECULE
*****
 24 26 0 0 0
SMALL
GASTEIGER

@<TRIPOS>ATOM
      1 C          64.5775   90.6461   14.4083 C.ar    1  UNL1        0.0012
      2 C          63.8913   90.9883   15.6974 C.ar    1  UNL1       -0.0003
      3 C          63.3647   89.8955   16.5798 C.ar    1  UNL1       -0.0045
      4 C          63.5244   88.4606   16.1730 C.ar    1  UNL1       -0.0247
      5 C          64.2106   88.1184   14.8838 C.ar    1  UNL1       -0.0247
      6 C          64.7371   89.2112   14.0015 C.ar    1  UNL1       -0.0045
      7 C          64.2212   86.6248   14.7466 C.3     1  UNL1        0.0437
      8 C          63.5415   86.0438   15.9510 C.3     1  UNL1        0.0838
      9 C          63.1108   87.1784   16.8326 C.3     1  UNL1        0.0437
     10 C          66.6838   95.0171   10.8787 C.3     1  UNL1        0.0521
     11 C          66.1572   93.9244   11.7610 C.ar    1  UNL1        0.0594
     12 C          65.1984   92.9114   11.2093 C.ar    1  UNL1        0.0147
     13 C          64.6718   91.8186   12.0917 C.ar    1  UNL1        0.0028
     14 C          65.1041   91.7389   13.5258 C.ar    1  UNL1        0.0191
     15 C          66.0629   92.7519   14.0776 C.ar    1  UNL1        0.0984
     16 N          66.5895   93.8446   13.1953 N.ar    1  UNL1       -0.2481
     17 N          63.3296   84.5844   16.2256 N.3     1  UNL1       -0.1841
     18 H          62.6168   84.5219   16.9525 H       1  UNL1        0.1484
     19 S          62.9008   83.6675   15.1186 S.O2    1  UNL1        0.0390
     20 O          61.6551   84.4810   14.9275 O.2     1  UNL1       -0.1576
     21 O          64.1465   82.8540   15.3097 O.2     1  UNL1       -0.1576
     22 C          62.4719   82.7506   14.0116 C.3     1  UNL1        0.1457
     23 C          61.7001   81.5037   14.3271 C.3     1  UNL1        0.0270
     24 C          62.8148   83.0807   12.5891 C.3     1  UNL1        0.0270
@<TRIPOS>BOND
     1    10    11    1
     2    11    12   ar
     3    12    13   ar
     4    13    14   ar
     5    14     1    1
     6     1     2   ar
     7     2     3   ar
     8     3     4   ar
     9     4     5   ar
    10     5     6   ar
    11     5     7    1
    12     7     8    1
    13     8    17    1
    14    17    19    1
    15    19    20    2
    16    19    21    2
    17    19    22    1
    18    22    23    1
    19    22    24    1
    20     8     9    1
    21    14    15   ar
    22    15    16   ar
    23    16    11   ar
    24     6     1   ar
    25     9     4    1
    26    17    18    1
@<TRIPOS>MOLECULE
*****
 24 26 0 0 0
SMALL
GASTEIGER

@<TRIPOS>ATOM
      1 C          62.7985   85.8555   12.3700 C.ar    1  UNL1        0.0012
      2 C          62.1448   86.4451   11.1555 C.ar    1  UNL1       -0.0003
      3 C          62.2197   87.9223   10.9060 C.ar    1  UNL1       -0.0045
      4 C          62.9484   88.8099   11.8710 C.ar    1  UNL1       -0.0247
      5 C          63.6021   88.2203   13.0855 C.ar    1  UNL1       -0.0247
      6 C          63.5272   86.7432   13.3349 C.ar    1  UNL1       -0.0045
      7 C          64.2454   89.3366   13.8536 C.3     1  UNL1        0.0437
      8 C          63.9892   90.6162   13.1138 C.3     1  UNL1        0.0838
      9 C          63.1876   90.2907   11.8885 C.3     1  UNL1        0.0437
     10 C          62.4989   79.9467   13.3682 C.3     1  UNL1        0.0521
     11 C          62.5738   81.4239   13.1186 C.ar    1  UNL1        0.0594
     12 C          62.8268   81.9384   11.7326 C.ar    1  UNL1        0.0147
     13 C          62.9017   83.4157   11.4830 C.ar    1  UNL1        0.0028
     14 C          62.7236   84.3783   12.6195 C.ar    1  UNL1        0.0191
     15 C          62.4706   83.8637   14.0056 C.ar    1  UNL1        0.0984
     16 N          62.3957   82.3866   14.2552 N.ar    1  UNL1       -0.2481
     17 N          64.4531   91.9815   13.5269 N.3     1  UNL1       -0.1841
     18 H          63.7634   92.3395   14.1876 H       1  UNL1        0.1484
     19 S          65.7979   92.1544   14.1687 S.O2    1  UNL1        0.0390
     20 O          65.1398   92.2980   15.5090 O.2     1  UNL1       -0.1576
     21 O          66.4559   92.0108   12.8284 O.2     1  UNL1       -0.1576
     22 C          67.1426   92.3272   14.8104 C.3     1  UNL1        0.1457
     23 C          68.3877   91.9881   14.0457 C.3     1  UNL1        0.0270
     24 C          67.2422   92.8390   16.2169 C.3     1  UNL1        0.0270
@<TRIPOS>BOND
     1    10    11    1
     2    11    12   ar
     3    12    13   ar
     4    13    14   ar
     5    14     1    1
     6     1     2   ar
     7     2     3   ar
     8     3     4   ar
     9     4     5   ar
    10     5     6   ar
    11     5     7    1
    12     7     8    1
    13     8    17    1
    14    17    19    1
    15    19    20    2
    16    19    21    2
    17    19    22    1
    18    22    23    1
    19    22    24    1
    20     8     9    1
    21    14    15   ar
    22    15    16   ar
    23    16    11   ar
    24     6     1   ar
    25     9     4    1
    26    17    18    1
@<TRIPOS>MOLECULE
*****
 24 26 0 0 0
SMALL
GASTEIGER

@<TRIPOS>ATOM
      1 C          63.6860   85.3490   13.6874 C.ar    1  UNL1        0.0012
      2 C          64.4292   85.7279   14.9340 C.ar    1  UNL1       -0.0003
      3 C          64.7305   87.1695   15.2186 C.ar    1  UNL1       -0.0045
      4 C          64.2885   88.2322   14.2567 C.ar    1  UNL1       -0.0247
      5 C          63.5453   87.8533   13.0101 C.ar    1  UNL1       -0.0247
      6 C          63.2440   86.4117   12.7255 C.ar    1  UNL1       -0.0045
      7 C          63.2384   89.1113   12.2530 C.3     1  UNL1        0.0437
      8 C          63.7919   90.2677   13.0317 C.3     1  UNL1        0.0838
      9 C          64.4410   89.7244   14.2700 C.3     1  UNL1        0.0437
     10 C          62.4808   79.5826   12.5488 C.3     1  UNL1        0.0521
     11 C          62.7821   81.0242   12.8334 C.ar    1  UNL1        0.0594
     12 C          62.8252   82.0173   11.7102 C.ar    1  UNL1        0.0147
     13 C          63.1265   83.4590   11.9948 C.ar    1  UNL1        0.0028
     14 C          63.3847   83.9074   13.4027 C.ar    1  UNL1        0.0191
     15 C          63.3416   82.9142   14.5260 C.ar    1  UNL1        0.0984
     16 N          63.0403   81.4727   14.2414 N.ar    1  UNL1       -0.2481
     17 N          63.7107   91.7136   12.6406 N.3     1  UNL1       -0.1841
     18 H          63.4574   92.2323   13.4815 H       1  UNL1        0.1484
     19 S          64.9079   92.3999   12.0527 S.O2    1  UNL1        0.0390
     20 O          65.3769   92.7622   13.4307 O.2     1  UNL1       -0.1576
     21 O          64.4390   92.0376   10.6747 O.2     1  UNL1       -0.1576
     22 C          66.1052   93.0863   11.4648 C.3     1  UNL1        0.1457
     23 C          66.2553   94.5733   11.5929 C.3     1  UNL1        0.0270
     24 C          67.1523   92.2857   10.7489 C.3     1  UNL1        0.0270
@<TRIPOS>BOND
     1    10    11    1
     2    11    12   ar
     3    12    13   ar
     4    13    14   ar
     5    14     1    1
     6     1     2   ar
     7     2     3   ar
     8     3     4   ar
     9     4     5   ar
    10     5     6   ar
    11     5     7    1
    12     7     8    1
    13     8    17    1
    14    17    19    1
    15    19    20    2
    16    19    21    2
    17    19    22    1
    18    22    23    1
    19    22    24    1
    20     8     9    1
    21    14    15   ar
    22    15    16   ar
    23    16    11   ar
    24     6     1   ar
    25     9     4    1
    26    17    18    1
@<TRIPOS>MOLECULE
*****
 24 26 0 0 0
SMALL
GASTEIGER

@<TRIPOS>ATOM
      1 C          65.4247   91.8160   12.7632 C.ar    1  UNL1        0.0012
      2 C          65.3210   92.4513   11.4083 C.ar    1  UNL1       -0.0003
      3 C          64.2267   92.0396   10.4688 C.ar    1  UNL1       -0.0045
      4 C          63.2360   90.9926   10.8841 C.ar    1  UNL1       -0.0247
      5 C          63.3397   90.3574   12.2389 C.ar    1  UNL1       -0.0247
      6 C          64.4341   90.7691   13.1785 C.ar    1  UNL1       -0.0045
      7 C          62.2269   89.3601   12.3696 C.3     1  UNL1        0.0437
      8 C          61.4354   89.3791   11.0956 C.3     1  UNL1        0.0838
      9 C          62.0590   90.3880   10.1774 C.3     1  UNL1        0.0437
     10 C          69.8023   93.4627   16.5216 C.3     1  UNL1        0.0521
     11 C          68.7080   93.0511   15.5820 C.ar    1  UNL1        0.0594
     12 C          67.2733   93.1720   16.0028 C.ar    1  UNL1        0.0147
     13 C          66.1789   92.7603   15.0631 C.ar    1  UNL1        0.0028
     14 C          66.5192   92.2277   13.7028 C.ar    1  UNL1        0.0191
     15 C          67.9538   92.1068   13.2821 C.ar    1  UNL1        0.0984
     16 N          69.0482   92.5185   14.2216 N.ar    1  UNL1       -0.2481
     17 N          60.2316   88.5368   10.7929 N.3     1  UNL1       -0.1841
     18 H          59.4538   89.1789   10.6405 H       1  UNL1        0.1484
     19 S          60.2499   87.5942    9.6263 S.O2    1  UNL1        0.0390
     20 O          60.8944   86.5456   10.4837 O.2     1  UNL1       -0.1576
     21 O          59.6054   88.6427    8.7689 O.2     1  UNL1       -0.1576
     22 C          60.2682   86.6515    8.4597 C.3     1  UNL1        0.1457
     23 C          59.0818   86.5659    7.5458 C.3     1  UNL1        0.0270
     24 C          61.4729   85.7943    8.2069 C.3     1  UNL1        0.0270
@<TRIPOS>BOND
     1    10    11    1
     2    11    12   ar
     3    12    13   ar
     4    13    14   ar
     5    14     1    1
     6     1     2   ar
     7     2     3   ar
     8     3     4   ar
     9     4     5   ar
    10     5     6   ar
    11     5     7    1
    12     7     8    1
    13     8    17    1
    14    17    19    1
    15    19    20    2
    16    19    21    2
    17    19    22    1
    18    22    23    1
    19    22    24    1
    20     8     9    1
    21    14    15   ar
    22    15    16   ar
    23    16    11   ar
    24     6     1   ar
    25     9     4    1
    26    17    18    1
@<TRIPOS>MOLECULE
*****
 24 26 0 0 0
SMALL
GASTEIGER

@<TRIPOS>ATOM
      1 C          62.7274   88.7912   11.5719 C.ar    1  UNL1        0.0012
      2 C          63.2153   87.9563   12.7185 C.ar    1  UNL1       -0.0003
      3 C          64.0995   88.5647   13.7664 C.ar    1  UNL1       -0.0045
      4 C          64.4957   90.0080   13.6676 C.ar    1  UNL1       -0.0247
      5 C          64.0078   90.8429   12.5210 C.ar    1  UNL1       -0.0247
      6 C          63.1237   90.2345   11.4731 C.ar    1  UNL1       -0.0045
      7 C          64.5601   92.2275   12.6878 C.3     1  UNL1        0.0437
      8 C          65.3893   92.2484   13.9376 C.3     1  UNL1        0.0838
      9 C          65.3496   90.8766   14.5432 C.3     1  UNL1        0.0437
     10 C          59.1908   86.3576    7.3802 C.3     1  UNL1        0.0521
     11 C          60.0749   86.9660    8.4281 C.ar    1  UNL1        0.0594
     12 C          61.0218   86.1003    9.2052 C.ar    1  UNL1        0.0147
     13 C          61.9060   86.7088   10.2532 C.ar    1  UNL1        0.0028
     14 C          61.8432   88.1828   10.5239 C.ar    1  UNL1        0.0191
     15 C          60.8963   89.0484    9.7468 C.ar    1  UNL1        0.0984
     16 N          60.0122   88.4401    8.6989 N.ar    1  UNL1       -0.2481
     17 N          66.1286   93.4330   14.4856 N.3     1  UNL1       -0.1841
     18 H          65.4953   93.9012   15.1338 H       1  UNL1        0.1484
     19 S          67.4256   93.2368   15.2131 S.O2    1  UNL1        0.0390
     20 O          68.1293   93.0343   13.9040 O.2     1  UNL1       -0.1576
     21 O          66.7219   93.4392   16.5222 O.2     1  UNL1       -0.1576
     22 C          68.7226   93.0405   15.9406 C.3     1  UNL1        0.1457
     23 C          69.7079   94.1678   16.0345 C.3     1  UNL1        0.0270
     24 C          69.0344   91.7172   16.5742 C.3     1  UNL1        0.0270
@<TRIPOS>BOND
     1    10    11    1
     2    11    12   ar
     3    12    13   ar
     4    13    14   ar
     5    14     1    1
     6     1     2   ar
     7     2     3   ar
     8     3     4   ar
     9     4     5   ar
    10     5     6   ar
    11     5     7    1
    12     7     8    1
    13     8    17    1
    14    17    19    1
    15    19    20    2
    16    19    21    2
    17    19    22    1
    18    22    23    1
    19    22    24    1
    20     8     9    1
    21    14    15   ar
    22    15    16   ar
    23    16    11   ar
    24     6     1   ar
    25     9     4    1
    26    17    18    1
@<TRIPOS>MOLECULE
*****
 24 26 0 0 0
SMALL
GASTEIGER

@<TRIPOS>ATOM
      1 C          61.9928   88.0200    9.8842 C.ar    1  UNL1        0.0012
      2 C          61.3915   89.3807    9.6929 C.ar    1  UNL1       -0.0003
      3 C          61.6284   90.4554   10.7122 C.ar    1  UNL1       -0.0045
      4 C          62.4666   90.1692   11.9228 C.ar    1  UNL1       -0.0247
      5 C          63.0680   88.8085   12.1140 C.ar    1  UNL1       -0.0247
      6 C          62.8311   87.7338   11.0947 C.ar    1  UNL1       -0.0045
      7 C          63.8443   88.8210   13.3975 C.3     1  UNL1        0.0437
      8 C          63.7226   90.1895   13.9995 C.3     1  UNL1        0.0838
      9 C          62.8712   91.0228   13.0881 C.3     1  UNL1        0.0437
     10 C          61.0452   83.7213    5.8069 C.3     1  UNL1        0.0521
     11 C          61.2822   84.7959    6.8262 C.ar    1  UNL1        0.0594
     12 C          62.6271   84.9291    7.4769 C.ar    1  UNL1        0.0147
     13 C          62.8640   86.0038    8.4962 C.ar    1  UNL1        0.0028
     14 C          61.7560   86.9453    8.8648 C.ar    1  UNL1        0.0191
     15 C          60.4110   86.8121    8.2142 C.ar    1  UNL1        0.0984
     16 N          60.1741   85.7375    7.1949 N.ar    1  UNL1       -0.2481
     17 N          64.3434   90.6447   15.2870 N.3     1  UNL1       -0.1841
     18 H          64.7421   89.8172   15.7304 H       1  UNL1        0.1484
     19 S          65.4198   91.6892   15.2724 S.O2    1  UNL1        0.0390
     20 O          64.6923   92.4539   16.3381 O.2     1  UNL1       -0.1576
     21 O          66.1474   90.9245   14.2066 O.2     1  UNL1       -0.1576
     22 C          66.4963   92.7337   15.2578 C.3     1  UNL1        0.1457
     23 C          67.5147   92.7766   16.3584 C.3     1  UNL1        0.0270
     24 C          66.5544   93.7353   14.1427 C.3     1  UNL1        0.0270
@<TRIPOS>BOND
     1    10    11    1
     2    11    12   ar
     3    12    13   ar
     4    13    14   ar
     5    14     1    1
     6     1     2   ar
     7     2     3   ar
     8     3     4   ar
     9     4     5   ar
    10     5     6   ar
    11     5     7    1
    12     7     8    1
    13     8    17    1
    14    17    19    1
    15    19    20    2
    16    19    21    2
    17    19    22    1
    18    22    23    1
    19    22    24    1
    20     8     9    1
    21    14    15   ar
    22    15    16   ar
    23    16    11   ar
    24     6     1   ar
    25     9     4    1
    26    17    18    1
@<TRIPOS>MOLECULE
*****
 24 26 0 0 0
SMALL
GASTEIGER

@<TRIPOS>ATOM
      1 C          62.7843   86.4305   12.1798 C.ar    1  UNL1        0.0012
      2 C          62.1095   86.9105   10.9291 C.ar    1  UNL1       -0.0003
      3 C          62.2438   88.3437   10.5073 C.ar    1  UNL1       -0.0045
      4 C          63.0528   89.2969   11.3362 C.ar    1  UNL1       -0.0247
      5 C          63.7275   88.8168   12.5869 C.ar    1  UNL1       -0.0247
      6 C          63.5932   87.3836   13.0087 C.ar    1  UNL1       -0.0045
      7 C          64.4539   89.9788   13.1969 C.3     1  UNL1        0.0437
      8 C          64.2281   91.1770   12.3232 C.3     1  UNL1        0.0838
      9 C          63.3621   90.7556   11.1732 C.3     1  UNL1        0.0437
     10 C          62.2474   80.6977   13.8672 C.3     1  UNL1        0.0521
     11 C          62.3816   82.1309   13.4453 C.ar    1  UNL1        0.0594
     12 C          62.5391   82.4738   11.9936 C.ar    1  UNL1        0.0147
     13 C          62.6734   83.9070   11.5717 C.ar    1  UNL1        0.0028
     14 C          62.6500   84.9973   12.6016 C.ar    1  UNL1        0.0191
     15 C          62.4925   84.6544   14.0534 C.ar    1  UNL1        0.0984
     16 N          62.3583   83.2212   14.4753 N.ar    1  UNL1       -0.2481
     17 N          64.7727   92.5548   12.5583 N.3     1  UNL1       -0.1841
     18 H          65.1898   92.5517   13.4891 H       1  UNL1        0.1484
     19 S          65.8000   93.1244   11.6254 S.O2    1  UNL1        0.0390
     20 O          66.8928   92.6124   12.5162 O.2     1  UNL1       -0.1576
     21 O          64.7071   93.6365   10.7346 O.2     1  UNL1       -0.1576
     22 C          66.8272   93.6941   10.6925 C.3     1  UNL1        0.1457
     23 C          67.7925   92.7833    9.9934 C.3     1  UNL1        0.0270
     24 C          66.8892   95.1744   10.4588 C.3     1  UNL1        0.0270
@<TRIPOS>BOND
     1    10    11    1
     2    11    12   ar
     3    12    13   ar
     4    13    14   ar
     5    14     1    1
     6     1     2   ar
     7     2     3   ar
     8     3     4   ar
     9     4     5   ar
    10     5     6   ar
    11     5     7    1
    12     7     8    1
    13     8    17    1
    14    17    19    1
    15    19    20    2
    16    19    21    2
    17    19    22    1
    18    22    23    1
    19    22    24    1
    20     8     9    1
    21    14    15   ar
    22    15    16   ar
    23    16    11   ar
    24     6     1   ar
    25     9     4    1
    26    17    18    1
@<TRIPOS>MOLECULE
*****
 24 26 0 0 0
SMALL
GASTEIGER

@<TRIPOS>ATOM
      1 C          62.4632   86.6816   10.1455 C.ar    1  UNL1        0.0012
      2 C          62.7182   85.8783   11.3863 C.ar    1  UNL1       -0.0003
      3 C          63.1106   86.5683   12.6590 C.ar    1  UNL1       -0.0045
      4 C          63.2479   88.0616   12.6910 C.ar    1  UNL1       -0.0247
      5 C          62.9929   88.8650   11.4502 C.ar    1  UNL1       -0.0247
      6 C          62.6005   88.1750   10.1775 C.ar    1  UNL1       -0.0045
      7 C          63.2049   90.3121   11.7833 C.3     1  UNL1        0.0437
      8 C          63.5910   90.4031   13.2299 C.3     1  UNL1        0.0838
      9 C          63.6176   89.0122   13.7909 C.3     1  UNL1        0.0437
     10 C          60.8935   83.9218    5.0544 C.3     1  UNL1        0.0521
     11 C          61.2859   84.6117    6.3271 C.ar    1  UNL1        0.0594
     12 C          62.6911   84.4978    6.8395 C.ar    1  UNL1        0.0147
     13 C          63.0835   85.1878    8.1123 C.ar    1  UNL1        0.0028
     14 C          62.0707   85.9916    8.8727 C.ar    1  UNL1        0.0191
     15 C          60.6656   86.1055    8.3603 C.ar    1  UNL1        0.0984
     16 N          60.2731   85.4156    7.0876 N.ar    1  UNL1       -0.2481
     17 N          63.8969   91.6637   13.9832 N.3     1  UNL1       -0.1841
     18 H          63.3213   91.6506   14.8252 H       1  UNL1        0.1484
     19 S          65.3015   91.9524   14.4232 S.O2    1  UNL1        0.0390
     20 O          64.8344   92.0583   15.8447 O.2     1  UNL1       -0.1576
     21 O          65.7686   91.8465   13.0017 O.2     1  UNL1       -0.1576
     22 C          66.7061   92.2411   14.8633 C.3     1  UNL1        0.1457
     23 C          67.8545   91.9564   13.9410 C.3     1  UNL1        0.0270
     24 C          66.9625   92.8144   16.2254 C.3     1  UNL1        0.0270
@<TRIPOS>BOND
     1    10    11    1
     2    11    12   ar
     3    12    13   ar
     4    13    14   ar
     5    14     1    1
     6     1     2   ar
     7     2     3   ar
     8     3     4   ar
     9     4     5   ar
    10     5     6   ar
    11     5     7    1
    12     7     8    1
    13     8    17    1
    14    17    19    1
    15    19    20    2
    16    19    21    2
    17    19    22    1
    18    22    23    1
    19    22    24    1
    20     8     9    1
    21    14    15   ar
    22    15    16   ar
    23    16    11   ar
    24     6     1   ar
    25     9     4    1
    26    17    18    1
@<TRIPOS>MOLECULE
*****
 24 26 0 0 0
SMALL
GASTEIGER

@<TRIPOS>ATOM
      1 C          61.9858   86.0399   10.8367 C.ar    1  UNL1        0.0012
      2 C          62.3412   87.4115   11.3291 C.ar    1  UNL1       -0.0003
      3 C          61.7820   88.6227   10.6435 C.ar    1  UNL1       -0.0045
      4 C          60.8674   88.4624    9.4654 C.ar    1  UNL1       -0.0247
      5 C          60.5120   87.0909    8.9730 C.ar    1  UNL1       -0.0247
      6 C          61.0712   85.8796    9.6587 C.ar    1  UNL1       -0.0045
      7 C          59.5929   87.2441    7.7976 C.3     1  UNL1        0.0437
      8 C          59.3802   88.7104    7.5635 C.3     1  UNL1        0.0838
      9 C          60.1679   89.4634    8.5943 C.3     1  UNL1        0.0437
     10 C          64.2227   81.1947   13.5791 C.3     1  UNL1        0.0521
     11 C          63.6634   82.4060   12.8936 C.ar    1  UNL1        0.0594
     12 C          63.0615   83.5155   13.7039 C.ar    1  UNL1        0.0147
     13 C          62.5023   84.7269   13.0183 C.ar    1  UNL1        0.0028
     14 C          62.5450   84.8286   11.5224 C.ar    1  UNL1        0.0191
     15 C          63.1469   83.7191   10.7120 C.ar    1  UNL1        0.0984
     16 N          63.7061   82.5078   11.3976 N.ar    1  UNL1       -0.2481
     17 N          58.5293   89.3172    6.4874 N.3     1  UNL1       -0.1841
     18 H          57.6990   89.6930    6.9454 H       1  UNL1        0.1484
     19 S          59.0806   90.4126    5.6236 S.O2    1  UNL1        0.0390
     20 O          60.4603   89.8474    5.7875 O.2     1  UNL1       -0.1576
     21 O          57.7008   90.9778    5.4597 O.2     1  UNL1       -0.1576
     22 C          59.6319   91.5080    4.7598 C.3     1  UNL1        0.1457
     23 C          58.7713   92.6818    4.3967 C.3     1  UNL1        0.0270
     24 C          61.0437   91.4297    4.2592 C.3     1  UNL1        0.0270
@<TRIPOS>BOND
     1    10    11    1
     2    11    12   ar
     3    12    13   ar
     4    13    14   ar
     5    14     1    1
     6     1     2   ar
     7     2     3   ar
     8     3     4   ar
     9     4     5   ar
    10     5     6   ar
    11     5     7    1
    12     7     8    1
    13     8    17    1
    14    17    19    1
    15    19    20    2
    16    19    21    2
    17    19    22    1
    18    22    23    1
    19    22    24    1
    20     8     9    1
    21    14    15   ar
    22    15    16   ar
    23    16    11   ar
    24     6     1   ar
    25     9     4    1
    26    17    18    1
