@<TRIPOS>MOLECULE
*****
 30 34 0 0 0
SMALL
GASTEIGER

@<TRIPOS>ATOM
      1 C          63.4689   89.8612   11.6215 C.ar    1  UNL1        0.0028
      2 C          63.7306   90.7475   10.4400 C.ar    1  UNL1        0.0002
      3 C          64.5089   92.0180   10.6133 C.ar    1  UNL1        0.0029
      4 C          65.0254   92.4022   11.9681 C.ar    1  UNL1        0.0349
      5 C          65.8037   93.6728   12.1414 C.ar    1  UNL1        0.1535
      6 N          66.3203   94.0570   13.4962 N.ar    1  UNL1       -0.1329
      7 N          66.0586   93.1707   14.6778 N.ar    1  UNL1       -0.1452
      8 C          65.2803   91.9002   14.5044 C.ar    1  UNL1        0.1222
      9 C          64.7638   91.5159   13.1496 C.ar    1  UNL1        0.0237
     10 C          63.9855   90.2454   12.9763 C.ar    1  UNL1        0.0018
     11 C          62.7806   85.1094   13.0808 C.ar    1  UNL1        0.1705
     12 N          63.8947   85.7547   13.8504 N.ar    1  UNL1       -0.0621
     13 O          64.0398   87.1652   13.3611 O.2     1  UNL1       -0.3522
     14 C          63.0154   87.3916   12.2891 C.ar    1  UNL1        0.1777
     15 C          62.6906   88.5906   11.4483 C.ar    1  UNL1        0.0333
     16 C          61.5877   88.5191   10.4342 C.ar    1  UNL1       -0.0188
     17 C          61.2630   89.7180    9.5934 C.3     1  UNL1        0.0311
     18 C          60.8094   87.2485   10.2609 C.ar    1  UNL1       -0.0040
     19 C          61.1341   86.0495   11.1018 C.ar    1  UNL1        0.0057
     20 C          62.2372   86.1211   12.1159 C.ar    1  UNL1        0.0717
     21 C          62.3583   83.0386   14.5918 C.3     1  UNL1        0.1097
     22 N          62.2952   83.6999   13.2470 N.pl3   1  UNL1       -0.3140
     23 H          61.9351   83.2089   12.4734 H       1  UNL1        0.1483
     24 N          66.0654   94.5591   10.9599 N.pl3   1  UNL1       -0.2884
     25 C          65.3117   95.8469   10.8068 C.3     1  UNL1        0.1242
     26 C          65.5734   96.7332    9.6252 C.3     1  UNL1        0.1636
     27 O          66.5888   96.3316    8.5968 O.3     1  UNL1       -0.3502
     28 C          67.3425   95.0438    8.7499 C.3     1  UNL1        0.1618
     29 C          67.0808   94.1575    9.9314 C.3     1  UNL1        0.1039
     30 C          67.8345   92.8697   10.0844 C.3     1  UNL1        0.0241
@<TRIPOS>BOND
     1    21    22    1
     2    22    11    1
     3    11    12   ar
     4    12    13   ar
     5    13    14   ar
     6    14    15   ar
     7    15     1    1
     8     1     2   ar
     9     2     3   ar
    10     3     4   ar
    11     4     5   ar
    12     5    24    1
    13    24    25    1
    14    25    26    1
    15    26    27    1
    16    27    28    1
    17    28    29    1
    18    29    30    1
    19     5     6   ar
    20     6     7   ar
    21     7     8   ar
    22     8     9   ar
    23     9    10   ar
    24    15    16   ar
    25    16    17    1
    26    16    18   ar
    27    18    19   ar
    28    19    20   ar
    29    20    11   ar
    30    20    14   ar
    31    10     1   ar
    32     9     4   ar
    33    29    24    1
    34    22    23    1
@<TRIPOS>MOLECULE
*****
 30 34 0 0 0
SMALL
GASTEIGER

@<TRIPOS>ATOM
      1 C          64.0366   89.1529   13.9766 C.ar    1  UNL1        0.0028
      2 C          64.2822   87.7480   14.4413 C.ar    1  UNL1        0.0002
      3 C          63.8062   86.5905   13.6145 C.ar    1  UNL1        0.0029
      4 C          63.0845   86.8379   12.3230 C.ar    1  UNL1        0.0349
      5 C          62.6085   85.6803   11.4963 C.ar    1  UNL1        0.1535
      6 N          61.8868   85.9277   10.2048 N.ar    1  UNL1       -0.1329
      7 N          61.6412   87.3327    9.7400 N.ar    1  UNL1       -0.1452
      8 C          62.1172   88.4901   10.5668 C.ar    1  UNL1        0.1222
      9 C          62.8389   88.2428   11.8583 C.ar    1  UNL1        0.0237
     10 C          63.3149   89.4002   12.6851 C.ar    1  UNL1        0.0018
     11 C          67.2297   93.0016   14.3940 C.ar    1  UNL1        0.1705
     12 N          67.4449   92.2583   13.1091 N.ar    1  UNL1       -0.0621
     13 O          66.4594   91.1287   13.0564 O.2     1  UNL1       -0.3522
     14 C          65.6352   91.1738   14.3089 C.ar    1  UNL1        0.1777
     15 C          64.5127   90.3104   14.8033 C.ar    1  UNL1        0.0333
     16 C          63.8662   90.6046   16.1245 C.ar    1  UNL1       -0.0188
     17 C          62.7437   89.7412   16.6190 C.3     1  UNL1        0.0311
     18 C          64.3423   91.7621   16.9513 C.ar    1  UNL1       -0.0040
     19 C          65.4648   92.6255   16.4568 C.ar    1  UNL1        0.0057
     20 C          66.1113   92.3313   15.1355 C.ar    1  UNL1        0.0717
     21 C          68.9969   94.0740   15.9679 C.3     1  UNL1        0.1097
     22 N          67.9981   94.2040   14.8564 N.pl3   1  UNL1       -0.3140
     23 H          67.8468   95.0785   14.4303 H       1  UNL1        0.1483
     24 N          62.8541   84.2755   11.9610 N.pl3   1  UNL1       -0.2884
     25 C          62.4240   83.8540   13.3348 C.3     1  UNL1        0.1242
     26 C          62.6696   82.4490   13.7995 C.3     1  UNL1        0.1636
     27 O          63.3454   81.4657   12.8905 O.3     1  UNL1       -0.3502
     28 C          63.7755   81.8873   11.5167 C.3     1  UNL1        0.1618
     29 C          63.5298   83.2921   11.0519 C.3     1  UNL1        0.1039
     30 C          63.9599   83.7136    9.6781 C.3     1  UNL1        0.0241
@<TRIPOS>BOND
     1    21    22    1
     2    22    11    1
     3    11    12   ar
     4    12    13   ar
     5    13    14   ar
     6    14    15   ar
     7    15     1    1
     8     1     2   ar
     9     2     3   ar
    10     3     4   ar
    11     4     5   ar
    12     5    24    1
    13    24    25    1
    14    25    26    1
    15    26    27    1
    16    27    28    1
    17    28    29    1
    18    29    30    1
    19     5     6   ar
    20     6     7   ar
    21     7     8   ar
    22     8     9   ar
    23     9    10   ar
    24    15    16   ar
    25    16    17    1
    26    16    18   ar
    27    18    19   ar
    28    19    20   ar
    29    20    11   ar
    30    20    14   ar
    31    10     1   ar
    32     9     4   ar
    33    29    24    1
    34    22    23    1
@<TRIPOS>MOLECULE
*****
 30 34 0 0 0
SMALL
GASTEIGER

@<TRIPOS>ATOM
      1 C          63.9605   89.2205   13.8863 C.ar    1  UNL1        0.0028
      2 C          63.1898   89.5194   12.6347 C.ar    1  UNL1        0.0002
      3 C          62.6727   88.3959   11.7860 C.ar    1  UNL1        0.0029
      4 C          62.9265   86.9735   12.1888 C.ar    1  UNL1        0.0349
      5 C          62.4094   85.8500   11.3400 C.ar    1  UNL1        0.1535
      6 N          62.6631   84.4275   11.7429 N.ar    1  UNL1       -0.1329
      7 N          63.4339   84.1286   12.9945 N.ar    1  UNL1       -0.1452
      8 C          63.9510   85.2521   13.8433 C.ar    1  UNL1        0.1222
      9 C          63.6972   86.6745   13.4404 C.ar    1  UNL1        0.0237
     10 C          64.2142   87.7980   14.2891 C.ar    1  UNL1        0.0018
     11 C          67.2148   93.0149   14.3276 C.ar    1  UNL1        0.1705
     12 N          67.3793   92.3125   13.0125 N.ar    1  UNL1       -0.0621
     13 O          66.3782   91.1971   12.9543 O.2     1  UNL1       -0.3522
     14 C          65.5949   91.2101   14.2335 C.ar    1  UNL1        0.1777
     15 C          64.4776   90.3440   14.7351 C.ar    1  UNL1        0.0333
     16 C          63.8774   90.6014   16.0854 C.ar    1  UNL1       -0.0188
     17 C          62.7601   89.7354   16.5870 C.3     1  UNL1        0.0311
     18 C          64.3944   91.7250   16.9342 C.ar    1  UNL1       -0.0040
     19 C          65.5117   92.5910   16.4326 C.ar    1  UNL1        0.0057
     20 C          66.1120   92.3335   15.0822 C.ar    1  UNL1        0.0717
     21 C          68.9263   94.0499   15.9858 C.3     1  UNL1        0.1097
     22 N          68.0130   94.1920   14.8044 N.pl3   1  UNL1       -0.3140
     23 H          67.9374   95.0578   14.3419 H       1  UNL1        0.1483
     24 N          61.6386   86.1489   10.0884 N.pl3   1  UNL1       -0.2884
     25 C          60.3931   86.9820   10.1556 C.3     1  UNL1        0.1242
     26 C          59.6223   87.2809    8.9039 C.3     1  UNL1        0.1636
     27 O          60.0971   86.7468    7.5851 O.3     1  UNL1       -0.3502
     28 C          61.3427   85.9137    7.5180 C.3     1  UNL1        0.1618
     29 C          62.1134   85.6147    8.7696 C.3     1  UNL1        0.1039
     30 C          63.3590   84.7816    8.7024 C.3     1  UNL1        0.0241
@<TRIPOS>BOND
     1    21    22    1
     2    22    11    1
     3    11    12   ar
     4    12    13   ar
     5    13    14   ar
     6    14    15   ar
     7    15     1    1
     8     1     2   ar
     9     2     3   ar
    10     3     4   ar
    11     4     5   ar
    12     5    24    1
    13    24    25    1
    14    25    26    1
    15    26    27    1
    16    27    28    1
    17    28    29    1
    18    29    30    1
    19     5     6   ar
    20     6     7   ar
    21     7     8   ar
    22     8     9   ar
    23     9    10   ar
    24    15    16   ar
    25    16    17    1
    26    16    18   ar
    27    18    19   ar
    28    19    20   ar
    29    20    11   ar
    30    20    14   ar
    31    10     1   ar
    32     9     4   ar
    33    29    24    1
    34    22    23    1
@<TRIPOS>MOLECULE
*****
 30 34 0 0 0
SMALL
GASTEIGER

@<TRIPOS>ATOM
      1 C          63.4908   89.9931   11.5933 C.ar    1  UNL1        0.0028
      2 C          63.8404   90.9005   10.4512 C.ar    1  UNL1        0.0002
      3 C          64.6605   92.1323   10.6959 C.ar    1  UNL1        0.0029
      4 C          65.1310   92.4568   12.0827 C.ar    1  UNL1        0.0349
      5 C          65.9511   93.6888   12.3274 C.ar    1  UNL1        0.1535
      6 N          66.4216   94.0133   13.7142 N.ar    1  UNL1       -0.1329
      7 N          66.0720   93.1059   14.8564 N.ar    1  UNL1       -0.1452
      8 C          65.2519   91.8741   14.6117 C.ar    1  UNL1        0.1222
      9 C          64.7814   91.5495   13.2248 C.ar    1  UNL1        0.0237
     10 C          63.9613   90.3177   12.9801 C.ar    1  UNL1        0.0018
     11 C          59.8894   87.8007    8.8719 C.ar    1  UNL1        0.1705
     12 N          60.1331   89.2074    8.4120 N.ar    1  UNL1       -0.0621
     13 O          61.2163   89.7939    9.2679 O.2     1  UNL1       -0.3522
     14 C          61.6421   88.7496   10.2568 C.ar    1  UNL1        0.1777
     15 C          62.6707   88.7612   11.3486 C.ar    1  UNL1        0.0333
     16 C          62.8791   87.5410   12.1957 C.ar    1  UNL1       -0.0188
     17 C          63.9077   87.5526   13.2874 C.3     1  UNL1        0.0311
     18 C          62.0590   86.3090   11.9510 C.ar    1  UNL1       -0.0040
     19 C          61.0304   86.2974   10.8592 C.ar    1  UNL1        0.0057
     20 C          60.8220   87.5177   10.0121 C.ar    1  UNL1        0.0717
     21 C          59.3440   85.7411    7.3852 C.3     1  UNL1        0.1097
     22 N          58.8887   86.8448    8.2933 N.pl3   1  UNL1       -0.3140
     23 H          57.9332   86.9418    8.5096 H       1  UNL1        0.1483
     24 N          66.3007   94.5961   11.1853 N.pl3   1  UNL1       -0.2884
     25 C          65.6589   95.9476   11.0775 C.3     1  UNL1        0.1242
     26 C          66.0086   96.8549    9.9353 C.3     1  UNL1        0.1636
     27 O          67.0000   96.4108    8.9009 O.3     1  UNL1       -0.3502
     28 C          67.6418   95.0593    9.0088 C.3     1  UNL1        0.1618
     29 C          67.2922   94.1520   10.1509 C.3     1  UNL1        0.1039
     30 C          67.9340   92.8005   10.2587 C.3     1  UNL1        0.0241
@<TRIPOS>BOND
     1    21    22    1
     2    22    11    1
     3    11    12   ar
     4    12    13   ar
     5    13    14   ar
     6    14    15   ar
     7    15     1    1
     8     1     2   ar
     9     2     3   ar
    10     3     4   ar
    11     4     5   ar
    12     5    24    1
    13    24    25    1
    14    25    26    1
    15    26    27    1
    16    27    28    1
    17    28    29    1
    18    29    30    1
    19     5     6   ar
    20     6     7   ar
    21     7     8   ar
    22     8     9   ar
    23     9    10   ar
    24    15    16   ar
    25    16    17    1
    26    16    18   ar
    27    18    19   ar
    28    19    20   ar
    29    20    11   ar
    30    20    14   ar
    31    10     1   ar
    32     9     4   ar
    33    29    24    1
    34    22    23    1
@<TRIPOS>MOLECULE
*****
 30 34 0 0 0
SMALL
GASTEIGER

@<TRIPOS>ATOM
      1 C          63.1424   86.0781   13.1023 C.ar    1  UNL1        0.0028
      2 C          63.9862   86.8851   14.0440 C.ar    1  UNL1        0.0002
      3 C          64.1729   88.3551   13.8115 C.ar    1  UNL1        0.0029
      4 C          63.5160   89.0182   12.6373 C.ar    1  UNL1        0.0349
      5 C          63.7028   90.4883   12.4048 C.ar    1  UNL1        0.1535
      6 N          63.0458   91.1513   11.2306 N.ar    1  UNL1       -0.1329
      7 N          62.2020   90.3442   10.2889 N.ar    1  UNL1       -0.1452
      8 C          62.0153   88.8742   10.5214 C.ar    1  UNL1        0.1222
      9 C          62.6722   88.2112   11.6956 C.ar    1  UNL1        0.0237
     10 C          62.4855   86.7412   11.9281 C.ar    1  UNL1        0.0018
     11 C          63.2271   81.4584   11.1443 C.ar    1  UNL1        0.1705
     12 N          63.5754   82.4891   10.1117 N.ar    1  UNL1       -0.0621
     13 O          63.5294   83.8370   10.7682 O.2     1  UNL1       -0.3522
     14 C          63.1527   83.6393   12.2066 C.ar    1  UNL1        0.1777
     15 C          62.9556   84.6080   13.3348 C.ar    1  UNL1        0.0333
     16 C          62.5718   84.1067   14.6954 C.ar    1  UNL1       -0.0188
     17 C          62.3748   85.0754   15.8236 C.3     1  UNL1        0.0311
     18 C          62.3850   82.6366   14.9279 C.ar    1  UNL1       -0.0040
     19 C          62.5821   81.6679   13.7997 C.ar    1  UNL1        0.0057
     20 C          62.9659   82.1693   12.4390 C.ar    1  UNL1        0.0717
     21 C          62.7814   79.4393    9.5712 C.3     1  UNL1        0.1097
     22 N          63.1531   79.9770   10.9213 N.pl3   1  UNL1       -0.3140
     23 H          63.3485   79.3575   11.6611 H       1  UNL1        0.1483
     24 N          64.5465   91.2953   13.3465 N.pl3   1  UNL1       -0.2884
     25 C          64.3480   91.1681   14.8279 C.3     1  UNL1        0.1242
     26 C          65.1918   91.9752   15.7696 C.3     1  UNL1        0.1636
     27 O          66.2340   92.9093   15.2300 O.3     1  UNL1       -0.3502
     28 C          66.4324   93.0364   13.7486 C.3     1  UNL1        0.1618
     29 C          65.5887   92.2295   12.8069 C.3     1  UNL1        0.1039
     30 C          65.7871   92.3566   11.3255 C.3     1  UNL1        0.0241
@<TRIPOS>BOND
     1    21    22    1
     2    22    11    1
     3    11    12   ar
     4    12    13   ar
     5    13    14   ar
     6    14    15   ar
     7    15     1    1
     8     1     2   ar
     9     2     3   ar
    10     3     4   ar
    11     4     5   ar
    12     5    24    1
    13    24    25    1
    14    25    26    1
    15    26    27    1
    16    27    28    1
    17    28    29    1
    18    29    30    1
    19     5     6   ar
    20     6     7   ar
    21     7     8   ar
    22     8     9   ar
    23     9    10   ar
    24    15    16   ar
    25    16    17    1
    26    16    18   ar
    27    18    19   ar
    28    19    20   ar
    29    20    11   ar
    30    20    14   ar
    31    10     1   ar
    32     9     4   ar
    33    29    24    1
    34    22    23    1
@<TRIPOS>MOLECULE
*****
 30 34 0 0 0
SMALL
GASTEIGER

@<TRIPOS>ATOM
      1 C          62.6643   89.9626   10.7693 C.ar    1  UNL1        0.0028
      2 C          63.1889   91.0623    9.8944 C.ar    1  UNL1        0.0002
      3 C          64.2436   91.9943   10.4127 C.ar    1  UNL1        0.0029
      4 C          64.7738   91.8267   11.8059 C.ar    1  UNL1        0.0349
      5 C          65.8286   92.7588   12.3242 C.ar    1  UNL1        0.1535
      6 N          66.3587   92.5912   13.7173 N.ar    1  UNL1       -0.1329
      7 N          65.8341   91.4914   14.5922 N.ar    1  UNL1       -0.1452
      8 C          64.7793   90.5593   14.0739 C.ar    1  UNL1        0.1222
      9 C          64.2492   90.7270   12.6807 C.ar    1  UNL1        0.0237
     10 C          63.1944   89.7949   12.1624 C.ar    1  UNL1        0.0018
     11 C          61.6297   85.8104    8.1479 C.ar    1  UNL1        0.1705
     12 N          63.1067   86.0683    8.1901 N.ar    1  UNL1       -0.0621
     13 O          63.3362   87.3186    8.9865 O.2     1  UNL1       -0.3522
     14 C          62.0011   87.8333    9.4363 C.ar    1  UNL1        0.1777
     15 C          61.6095   89.0304   10.2510 C.ar    1  UNL1        0.0333
     16 C          60.1631   89.2954   10.5473 C.ar    1  UNL1       -0.0188
     17 C          59.7715   90.4924   11.3619 C.3     1  UNL1        0.0311
     18 C          59.1083   88.3632   10.0290 C.ar    1  UNL1       -0.0040
     19 C          59.5000   87.1661    9.2144 C.ar    1  UNL1        0.0057
     20 C          60.9464   86.9012    8.9180 C.ar    1  UNL1        0.0717
     21 C          61.4252   84.2211    6.1028 C.3     1  UNL1        0.1097
     22 N          60.9545   84.6630    7.4567 N.pl3   1  UNL1       -0.3140
     23 H          60.2024   84.2001    7.8917 H       1  UNL1        0.1483
     24 N          66.3532   93.8585   11.4494 N.pl3   1  UNL1       -0.2884
     25 C          65.9035   95.2723   11.6709 C.3     1  UNL1        0.1242
     26 C          66.4281   96.3720   10.7960 C.3     1  UNL1        0.1636
     27 O          67.4025   96.0580    9.6996 O.3     1  UNL1       -0.3502
     28 C          67.8522   94.6443    9.4781 C.3     1  UNL1        0.1618
     29 C          67.3276   93.5445   10.3530 C.3     1  UNL1        0.1039
     30 C          67.7773   92.1308   10.1314 C.3     1  UNL1        0.0241
@<TRIPOS>BOND
     1    21    22    1
     2    22    11    1
     3    11    12   ar
     4    12    13   ar
     5    13    14   ar
     6    14    15   ar
     7    15     1    1
     8     1     2   ar
     9     2     3   ar
    10     3     4   ar
    11     4     5   ar
    12     5    24    1
    13    24    25    1
    14    25    26    1
    15    26    27    1
    16    27    28    1
    17    28    29    1
    18    29    30    1
    19     5     6   ar
    20     6     7   ar
    21     7     8   ar
    22     8     9   ar
    23     9    10   ar
    24    15    16   ar
    25    16    17    1
    26    16    18   ar
    27    18    19   ar
    28    19    20   ar
    29    20    11   ar
    30    20    14   ar
    31    10     1   ar
    32     9     4   ar
    33    29    24    1
    34    22    23    1
@<TRIPOS>MOLECULE
*****
 30 34 0 0 0
SMALL
GASTEIGER

@<TRIPOS>ATOM
      1 C          64.0714   90.1821   12.4506 C.ar    1  UNL1        0.0028
      2 C          63.2500   90.2243   11.1962 C.ar    1  UNL1        0.0002
      3 C          62.5133   88.9997   10.7407 C.ar    1  UNL1        0.0029
      4 C          62.5979   87.7330   11.5396 C.ar    1  UNL1        0.0349
      5 C          61.8611   86.5084   11.0840 C.ar    1  UNL1        0.1535
      6 N          61.9457   85.2416   11.8829 N.ar    1  UNL1       -0.1329
      7 N          62.7671   85.1995   13.1373 N.ar    1  UNL1       -0.1452
      8 C          63.5039   86.4241   13.5928 C.ar    1  UNL1        0.1222
      9 C          63.4193   87.6908   12.7939 C.ar    1  UNL1        0.0237
     10 C          64.1561   88.9154   13.2494 C.ar    1  UNL1        0.0018
     11 C          66.3365   94.4658   11.1458 C.ar    1  UNL1        0.1705
     12 N          65.8036   93.7481    9.9413 N.ar    1  UNL1       -0.0621
     13 O          65.1443   92.4844   10.4088 O.2     1  UNL1       -0.3522
     14 C          65.2698   92.4212   11.9022 C.ar    1  UNL1        0.1777
     15 C          64.8083   91.4068   12.9061 C.ar    1  UNL1        0.0333
     16 C          65.0836   91.6169   14.3656 C.ar    1  UNL1       -0.0188
     17 C          64.6221   90.6024   15.3695 C.3     1  UNL1        0.0311
     18 C          65.8204   92.8415   14.8211 C.ar    1  UNL1       -0.0040
     19 C          66.2819   93.8559   13.8172 C.ar    1  UNL1        0.0057
     20 C          66.0066   93.6458   12.3577 C.ar    1  UNL1        0.0717
     21 C          66.6756   96.8509   10.1729 C.3     1  UNL1        0.1097
     22 N          67.0704   95.7739   11.1395 N.pl3   1  UNL1       -0.3140
     23 H          67.8113   95.9257   11.7698 H       1  UNL1        0.1483
     24 N          61.0396   86.5505    9.8297 N.pl3   1  UNL1       -0.2884
     25 C          59.7395   87.2983    9.8093 C.3     1  UNL1        0.1242
     26 C          58.9181   87.3405    8.5549 C.3     1  UNL1        0.1636
     27 O          59.3968   86.6349    7.3209 O.3     1  UNL1       -0.3502
     28 C          60.6970   85.8871    7.3412 C.3     1  UNL1        0.1618
     29 C          61.5184   85.8449    8.5955 C.3     1  UNL1        0.1039
     30 C          62.8185   85.0971    8.6159 C.3     1  UNL1        0.0241
@<TRIPOS>BOND
     1    21    22    1
     2    22    11    1
     3    11    12   ar
     4    12    13   ar
     5    13    14   ar
     6    14    15   ar
     7    15     1    1
     8     1     2   ar
     9     2     3   ar
    10     3     4   ar
    11     4     5   ar
    12     5    24    1
    13    24    25    1
    14    25    26    1
    15    26    27    1
    16    27    28    1
    17    28    29    1
    18    29    30    1
    19     5     6   ar
    20     6     7   ar
    21     7     8   ar
    22     8     9   ar
    23     9    10   ar
    24    15    16   ar
    25    16    17    1
    26    16    18   ar
    27    18    19   ar
    28    19    20   ar
    29    20    11   ar
    30    20    14   ar
    31    10     1   ar
    32     9     4   ar
    33    29    24    1
    34    22    23    1
@<TRIPOS>MOLECULE
*****
 30 34 0 0 0
SMALL
GASTEIGER

@<TRIPOS>ATOM
      1 C          63.0054   85.9414   11.9184 C.ar    1  UNL1        0.0028
      2 C          63.8102   86.5938   13.0031 C.ar    1  UNL1        0.0002
      3 C          63.8335   88.0887   13.1239 C.ar    1  UNL1        0.0029
      4 C          63.0519   88.9313   12.1600 C.ar    1  UNL1        0.0349
      5 C          63.0752   90.4263   12.2808 C.ar    1  UNL1        0.1535
      6 N          62.2936   91.2688   11.3169 N.ar    1  UNL1       -0.1329
      7 N          61.4888   90.6164   10.2321 N.ar    1  UNL1       -0.1452
      8 C          61.4656   89.1215   10.1113 C.ar    1  UNL1        0.1222
      9 C          62.2471   88.2789   11.0752 C.ar    1  UNL1        0.0237
     10 C          62.2239   86.7840   10.9545 C.ar    1  UNL1        0.0018
     11 C          62.4059   81.5351   14.2438 C.ar    1  UNL1        0.1705
     12 N          62.2520   82.6775   15.2035 N.ar    1  UNL1       -0.0621
     13 O          62.4436   83.9539   14.4392 O.2     1  UNL1       -0.3522
     14 C          62.7159   83.6003   13.0072 C.ar    1  UNL1        0.1777
     15 C          62.9822   84.4464   11.7976 C.ar    1  UNL1        0.0333
     16 C          63.2251   83.7976   10.4672 C.ar    1  UNL1       -0.0188
     17 C          63.4913   84.6438    9.2575 C.3     1  UNL1        0.0311
     18 C          63.2018   82.3026   10.3463 C.ar    1  UNL1       -0.0040
     19 C          62.9356   81.4565   11.5560 C.ar    1  UNL1        0.0057
     20 C          62.6926   82.1054   12.8864 C.ar    1  UNL1        0.0717
     21 C          62.2215   79.0570   13.4857 C.3     1  UNL1        0.1097
     22 N          62.2929   80.0781   14.5821 N.pl3   1  UNL1       -0.3140
     23 H          62.2656   79.7921   15.5237 H       1  UNL1        0.1483
     24 N          63.8800   91.0786   13.3655 N.pl3   1  UNL1       -0.2884
     25 C          63.5378   90.8317   14.8050 C.3     1  UNL1        0.1242
     26 C          64.3427   91.4841   15.8897 C.3     1  UNL1        0.1636
     27 O          65.4897   92.3833   15.5350 O.3     1  UNL1       -0.3502
     28 C          65.8319   92.6301   14.0956 C.3     1  UNL1        0.1618
     29 C          65.0271   91.9778   13.0109 C.3     1  UNL1        0.1039
     30 C          65.3693   92.2246   11.5714 C.3     1  UNL1        0.0241
@<TRIPOS>BOND
     1    21    22    1
     2    22    11    1
     3    11    12   ar
     4    12    13   ar
     5    13    14   ar
     6    14    15   ar
     7    15     1    1
     8     1     2   ar
     9     2     3   ar
    10     3     4   ar
    11     4     5   ar
    12     5    24    1
    13    24    25    1
    14    25    26    1
    15    26    27    1
    16    27    28    1
    17    28    29    1
    18    29    30    1
    19     5     6   ar
    20     6     7   ar
    21     7     8   ar
    22     8     9   ar
    23     9    10   ar
    24    15    16   ar
    25    16    17    1
    26    16    18   ar
    27    18    19   ar
    28    19    20   ar
    29    20    11   ar
    30    20    14   ar
    31    10     1   ar
    32     9     4   ar
    33    29    24    1
    34    22    23    1
@<TRIPOS>MOLECULE
*****
 30 34 0 0 0
SMALL
GASTEIGER

@<TRIPOS>ATOM
      1 C          62.0089   87.3652   10.8881 C.ar    1  UNL1        0.0028
      2 C          62.2709   88.7979   11.2469 C.ar    1  UNL1        0.0002
      3 C          63.0884   89.1298   12.4599 C.ar    1  UNL1        0.0029
      4 C          63.6440   88.0291   13.3141 C.ar    1  UNL1        0.0349
      5 C          64.4616   88.3611   14.5271 C.ar    1  UNL1        0.1535
      6 N          65.0173   87.2603   15.3813 N.ar    1  UNL1       -0.1329
      7 N          64.7553   85.8276   15.0225 N.ar    1  UNL1       -0.1452
      8 C          63.9377   85.4957   13.8095 C.ar    1  UNL1        0.1222
      9 C          63.3821   86.5964   12.9553 C.ar    1  UNL1        0.0237
     10 C          62.5645   86.2645   11.7423 C.ar    1  UNL1        0.0018
     11 C          61.6454   84.6986    6.6526 C.ar    1  UNL1        0.1705
     12 N          62.9320   84.4063    7.3660 N.ar    1  UNL1       -0.0621
     13 O          62.9681   85.2358    8.6153 O.2     1  UNL1       -0.3522
     14 C          61.7038   86.0407    8.6739 C.ar    1  UNL1        0.1777
     15 C          61.1913   87.0332    9.6751 C.ar    1  UNL1        0.0333
     16 C          59.8613   87.6936    9.4633 C.ar    1  UNL1       -0.0188
     17 C          59.3488   88.6860   10.4646 C.3     1  UNL1        0.0311
     18 C          59.0437   87.3616    8.2503 C.ar    1  UNL1       -0.0040
     19 C          59.5562   86.3692    7.2491 C.ar    1  UNL1        0.0057
     20 C          60.8863   85.7087    7.4609 C.ar    1  UNL1        0.0717
     21 C          61.9305   84.3994    4.0876 C.3     1  UNL1        0.1097
     22 N          61.1965   84.0879    5.3582 N.pl3   1  UNL1       -0.3140
     23 H          60.4202   83.4827    5.3425 H       1  UNL1        0.1483
     24 N          64.7236   89.7938   14.8859 N.pl3   1  UNL1       -0.2884
     25 C          65.7638   90.5756   14.1399 C.3     1  UNL1        0.1242
     26 C          66.0258   92.0084   14.4987 C.3     1  UNL1        0.1636
     27 O          65.2474   92.6592   15.6035 O.3     1  UNL1       -0.3502
     28 C          64.2072   91.8773   16.3495 C.3     1  UNL1        0.1618
     29 C          63.9452   90.4446   15.9908 C.3     1  UNL1        0.1039
     30 C          62.9050   89.6628   16.7368 C.3     1  UNL1        0.0241
@<TRIPOS>BOND
     1    21    22    1
     2    22    11    1
     3    11    12   ar
     4    12    13   ar
     5    13    14   ar
     6    14    15   ar
     7    15     1    1
     8     1     2   ar
     9     2     3   ar
    10     3     4   ar
    11     4     5   ar
    12     5    24    1
    13    24    25    1
    14    25    26    1
    15    26    27    1
    16    27    28    1
    17    28    29    1
    18    29    30    1
    19     5     6   ar
    20     6     7   ar
    21     7     8   ar
    22     8     9   ar
    23     9    10   ar
    24    15    16   ar
    25    16    17    1
    26    16    18   ar
    27    18    19   ar
    28    19    20   ar
    29    20    11   ar
    30    20    14   ar
    31    10     1   ar
    32     9     4   ar
    33    29    24    1
    34    22    23    1
