@<TRIPOS>MOLECULE
*****
 29 33 0 0 0
SMALL
GASTEIGER

@<TRIPOS>ATOM
      1 CL         62.9512   81.1449   11.5909 Cl      1  UNL1       -0.0822
      2 C          63.2335   82.4543   12.2661 C.ar    1  UNL1        0.0578
      3 C          63.9590   82.4803   13.5787 C.ar    1  UNL1        0.0129
      4 C          64.2412   83.7896   14.2539 C.ar    1  UNL1        0.0200
      5 C          63.7980   85.0730   13.6165 C.ar    1  UNL1        0.0827
      6 N          64.0802   86.3824   14.2917 N.ar    1  UNL1       -0.2306
      7 C          63.6369   87.6658   13.6543 C.ar    1  UNL1        0.1346
      8 C          62.9114   87.6399   12.3416 C.ar    1  UNL1        0.0687
      9 C          62.6292   86.3305   11.6664 C.ar    1  UNL1        0.0072
     10 C          63.0725   85.0471   12.3039 C.ar    1  UNL1        0.0187
     11 C          62.7902   83.7377   11.6287 C.ar    1  UNL1        0.0129
     12 N          63.9192   88.9752   14.3295 N.pl3   1  UNL1       -0.2932
     13 C          64.7601   90.0086   13.6401 C.3     1  UNL1        0.0922
     14 C          65.0423   91.3180   14.3153 C.3     1  UNL1        0.0215
     15 C          64.4836   91.5939   15.6798 C.3     1  UNL1        0.0035
     16 C          63.6428   90.5606   16.3691 C.3     1  UNL1        0.0215
     17 C          63.3606   89.2512   15.6939 C.3     1  UNL1        0.0922
     18 C          62.4682   88.9233   11.7042 C.ar    1  UNL1        0.1833
     19 N          63.0586   89.5469   10.4743 N.ar    1  UNL1       -0.1083
     20 N          62.3120   90.8175   10.1947 N.ar    1  UNL1       -0.0229
     21 N          61.2601   90.9792   11.2519 N.ar    1  UNL1       -0.0464
     22 N          61.3567   89.8085   12.1848 N.ar    1  UNL1       -0.2387
     23 H          60.7900   89.6492   12.9739 H       1  UNL1        0.1923
     24 C          61.9037   86.3046   10.3538 C.ar    1  UNL1        0.0002
     25 C          60.5078   86.8451   10.2576 C.ar    1  UNL1        0.0000
     26 C          59.7823   86.8191    8.9449 C.ar    1  UNL1        0.0000
     27 C          60.4527   86.2526    7.7285 C.ar    1  UNL1        0.0000
     28 C          61.8486   85.7121    7.8248 C.ar    1  UNL1        0.0000
     29 C          62.5741   85.7381    9.1374 C.ar    1  UNL1        0.0000
@<TRIPOS>BOND
     1     1     2    1
     2     2     3   ar
     3     3     4   ar
     4     4     5   ar
     5     5     6   ar
     6     6     7   ar
     7     7    12    1
     8    12    13    1
     9    13    14    1
    10    14    15    1
    11    15    16    1
    12    16    17    1
    13     7     8   ar
    14     8    18    1
    15    18    19   ar
    16    19    20   ar
    17    20    21   ar
    18    21    22   ar
    19     8     9   ar
    20     9    24    1
    21    24    25   ar
    22    25    26   ar
    23    26    27   ar
    24    27    28   ar
    25    28    29   ar
    26     9    10   ar
    27    10    11   ar
    28    11     2   ar
    29    10     5   ar
    30    17    12    1
    31    22    18   ar
    32    29    24   ar
    33    22    23    1
@<TRIPOS>MOLECULE
*****
 29 33 0 0 0
SMALL
GASTEIGER

@<TRIPOS>ATOM
      1 CL         59.7071   87.5097   10.9350 Cl      1  UNL1       -0.0822
      2 C          60.7020   88.5975   10.6574 C.ar    1  UNL1        0.0578
      3 C          60.6895   89.3057    9.3352 C.ar    1  UNL1        0.0129
      4 C          61.6844   90.3935    9.0576 C.ar    1  UNL1        0.0200
      5 C          62.6916   90.7731   10.1022 C.ar    1  UNL1        0.0827
      6 N          63.6865   91.8608    9.8246 N.ar    1  UNL1       -0.2306
      7 C          64.6937   92.2404   10.8693 C.ar    1  UNL1        0.1346
      8 C          64.7062   91.5322   12.1916 C.ar    1  UNL1        0.0687
      9 C          63.7114   90.4444   12.4691 C.ar    1  UNL1        0.0072
     10 C          62.7041   90.0649   11.4244 C.ar    1  UNL1        0.0187
     11 C          61.7092   88.9771   11.7020 C.ar    1  UNL1        0.0129
     12 N          65.6886   93.3282   10.5917 N.pl3   1  UNL1       -0.2932
     13 C          65.4266   94.7247   11.0725 C.3     1  UNL1        0.0922
     14 C          66.4214   95.8125   10.7949 C.3     1  UNL1        0.0215
     15 C          67.6782   95.5037   10.0365 C.3     1  UNL1        0.0035
     16 C          67.9402   94.1073    9.5557 C.3     1  UNL1        0.0215
     17 C          66.9453   93.0195    9.8333 C.3     1  UNL1        0.0922
     18 C          65.7135   91.9118   13.2362 C.ar    1  UNL1        0.1833
     19 N          65.4399   92.7115   14.4754 N.ar    1  UNL1       -0.1083
     20 N          66.7285   92.8523   15.2301 N.ar    1  UNL1       -0.0229
     21 N          67.7985   92.1396   14.4573 N.ar    1  UNL1       -0.0464
     22 N          67.1712   91.5583   13.2250 N.ar    1  UNL1       -0.2387
     23 H          67.6348   91.0365   12.5308 H       1  UNL1        0.1923
     24 C          63.7238   89.7363   13.7913 C.ar    1  UNL1        0.0002
     25 C          64.2564   88.3373   13.8879 C.ar    1  UNL1        0.0000
     26 C          64.2688   87.6291   15.2102 C.ar    1  UNL1        0.0000
     27 C          63.7486   88.3199   16.4358 C.ar    1  UNL1        0.0000
     28 C          63.2161   89.7188   16.3393 C.ar    1  UNL1        0.0000
     29 C          63.2036   90.4270   15.0171 C.ar    1  UNL1        0.0000
@<TRIPOS>BOND
     1     1     2    1
     2     2     3   ar
     3     3     4   ar
     4     4     5   ar
     5     5     6   ar
     6     6     7   ar
     7     7    12    1
     8    12    13    1
     9    13    14    1
    10    14    15    1
    11    15    16    1
    12    16    17    1
    13     7     8   ar
    14     8    18    1
    15    18    19   ar
    16    19    20   ar
    17    20    21   ar
    18    21    22   ar
    19     8     9   ar
    20     9    24    1
    21    24    25   ar
    22    25    26   ar
    23    26    27   ar
    24    27    28   ar
    25    28    29   ar
    26     9    10   ar
    27    10    11   ar
    28    11     2   ar
    29    10     5   ar
    30    17    12    1
    31    22    18   ar
    32    29    24   ar
    33    22    23    1
