@<TRIPOS>MOLECULE
*****
 13 13 0 0 0
SMALL
GASTEIGER

@<TRIPOS>ATOM
      1 C          63.6780   83.3135   14.2544 C.ar    1  UNL1        0.1178
      2 N          62.9454   83.6145   15.5282 N.ar    1  UNL1       -0.2269
      3 CA         63.1810   85.0562   15.8689 C.ar    1  UNL1        0.1510
      4 C          64.0592   85.6462   14.8056 C.ar    1  UNL1        0.1376
      5 CL         64.5450   87.0643   14.7498 Cl      1  UNL1       -0.0616
      6 N          64.3663   84.5692   13.8078 N.ar    1  UNL1       -0.3320
      7 H          64.9222   84.6689   13.0013 H       1  UNL1        0.1679
      8 C          62.6344   85.7806   17.0632 C.2     1  UNL1        0.2555
      9 O          61.2238   86.2907   17.0502 O.2     1  UNL1       -0.2814
     10 C          63.7156   81.9893   13.5507 C.3     1  UNL1        0.0637
     11 C          62.7966   81.7281   12.3943 C.3     1  UNL1        0.0079
     12 C          64.3512   82.8151   10.6189 C.3     1  UNL1        0.0000
     13 C          62.9733   82.4834   11.1104 C.3     1  UNL1        0.0005
@<TRIPOS>BOND
     1    12    13    1
     2    13    11    1
     3    11    10    1
     4    10     1    1
     5     1     2   ar
     6     2     3   ar
     7     3     8    1
     8     8     9    2
     9     3     4   ar
    10     4     5    1
    11     4     6   ar
    12     6     1   ar
    13     6     7    1
@<TRIPOS>MOLECULE
*****
 13 13 0 0 0
SMALL
GASTEIGER

@<TRIPOS>ATOM
      1 C          65.8703   92.9794   12.2220 C.ar    1  UNL1        0.1178
      2 N          64.8846   92.0900   12.9202 N.ar    1  UNL1       -0.2269
      3 CA         65.2741   92.0119   14.3666 C.ar    1  UNL1        0.1510
      4 C          66.5006   92.8530   14.5624 C.ar    1  UNL1        0.1376
      5 CL         67.2305   93.0599   15.8564 Cl      1  UNL1       -0.0616
      6 N          66.8690   93.4509   13.2369 N.ar    1  UNL1       -0.3320
      7 H          67.6323   94.0480   13.0636 H       1  UNL1        0.1679
      8 C          64.5622   91.2300   15.4304 C.2     1  UNL1        0.2555
      9 O          63.6933   91.9383   16.4271 O.2     1  UNL1       -0.2814
     10 C          65.8592   93.3348   10.7647 C.3     1  UNL1        0.0637
     11 C          66.9052   94.2552   10.2093 C.3     1  UNL1        0.0079
     12 C          68.3979   92.2971    9.3800 C.3     1  UNL1        0.0000
     13 C          67.9503   93.7248    9.2731 C.3     1  UNL1        0.0005
@<TRIPOS>BOND
     1    12    13    1
     2    13    11    1
     3    11    10    1
     4    10     1    1
     5     1     2   ar
     6     2     3   ar
     7     3     8    1
     8     8     9    2
     9     3     4   ar
    10     4     5    1
    11     4     6   ar
    12     6     1   ar
    13     6     7    1
@<TRIPOS>MOLECULE
*****
 13 13 0 0 0
SMALL
GASTEIGER

@<TRIPOS>ATOM
      1 C          62.6853   83.5302   14.5808 C.ar    1  UNL1        0.1178
      2 N          63.1460   83.6482   13.1582 N.ar    1  UNL1       -0.2269
      3 CA         63.0364   82.2943   12.5216 C.ar    1  UNL1        0.1510
      4 C          62.5079   81.3397   13.5509 C.ar    1  UNL1        0.1376
      5 CL         62.2429   79.8779   13.3439 Cl      1  UNL1       -0.0616
      6 N          62.2910   82.1035   14.8235 N.ar    1  UNL1       -0.3320
      7 H          61.9496   81.7334   15.6695 H       1  UNL1        0.1679
      8 C          63.3926   81.9548   11.1047 C.2     1  UNL1        0.2555
      9 O          64.6542   82.4944   10.4986 O.2     1  UNL1       -0.2814
     10 C          62.6289   84.6435   15.5845 C.3     1  UNL1        0.0637
     11 C          63.8757   85.3992   15.9372 C.3     1  UNL1        0.0079
     12 C          64.3619   87.6455   14.7255 C.3     1  UNL1        0.0000
     13 C          64.6073   86.1738   14.8813 C.3     1  UNL1        0.0005
@<TRIPOS>BOND
     1    12    13    1
     2    13    11    1
     3    11    10    1
     4    10     1    1
     5     1     2   ar
     6     2     3   ar
     7     3     8    1
     8     8     9    2
     9     3     4   ar
    10     4     5    1
    11     4     6   ar
    12     6     1   ar
    13     6     7    1
@<TRIPOS>MOLECULE
*****
 13 13 0 0 0
SMALL
GASTEIGER

@<TRIPOS>ATOM
      1 C          63.9599   85.3675   14.2377 C.ar    1  UNL1        0.1178
      2 N          64.5367   84.0605   13.7806 N.ar    1  UNL1       -0.2269
      3 CA         63.9553   83.7424   12.4350 C.ar    1  UNL1        0.1510
      4 C          63.0190   84.8528   12.0604 C.ar    1  UNL1        0.1376
      5 CL         62.2202   84.9431   10.7940 Cl      1  UNL1       -0.0616
      6 N          63.0219   85.8572   13.1745 N.ar    1  UNL1       -0.3320
      7 H          62.4998   86.6914   13.2029 H       1  UNL1        0.1679
      8 C          64.2571   82.5271   11.6091 C.2     1  UNL1        0.2555
      9 O          64.8462   82.6795   10.2380 O.2     1  UNL1       -0.2814
     10 C          64.2671   86.0628   15.5308 C.3     1  UNL1        0.0637
     11 C          63.3617   85.8822   16.7130 C.3     1  UNL1        0.0079
     12 C          63.1102   88.4603   16.9147 C.3     1  UNL1        0.0000
     13 C          62.7974   87.0814   17.4156 C.3     1  UNL1        0.0005
@<TRIPOS>BOND
     1    12    13    1
     2    13    11    1
     3    11    10    1
     4    10     1    1
     5     1     2   ar
     6     2     3   ar
     7     3     8    1
     8     8     9    2
     9     3     4   ar
    10     4     5    1
    11     4     6   ar
    12     6     1   ar
    13     6     7    1
@<TRIPOS>MOLECULE
*****
 13 13 0 0 0
SMALL
GASTEIGER

@<TRIPOS>ATOM
      1 C          62.2622   85.3319   11.4447 C.ar    1  UNL1        0.1178
      2 N          62.6026   83.8829   11.6305 N.ar    1  UNL1       -0.2269
      3 CA         63.4303   83.7571   12.8752 C.ar    1  UNL1        0.1510
      4 C          63.6014   85.1283   13.4586 C.ar    1  UNL1        0.1376
      5 CL         64.3610   85.4669   14.7069 Cl      1  UNL1       -0.0616
      6 N          62.8795   86.1016   12.5745 N.ar    1  UNL1       -0.3320
      7 H          62.8211   87.0747   12.7117 H       1  UNL1        0.1679
      8 C          63.9887   82.4836   13.4376 C.2     1  UNL1        0.2555
      9 O          63.5126   81.9786   14.7674 O.2     1  UNL1       -0.2814
     10 C          61.4475   85.9097   10.3256 C.3     1  UNL1        0.0637
     11 C          62.1177   86.3397    9.0544 C.3     1  UNL1        0.0079
     12 C          62.4377   84.7966    6.9888 C.3     1  UNL1        0.0000
     13 C          62.9518   85.3634    8.2790 C.3     1  UNL1        0.0005
@<TRIPOS>BOND
     1    12    13    1
     2    13    11    1
     3    11    10    1
     4    10     1    1
     5     1     2   ar
     6     2     3   ar
     7     3     8    1
     8     8     9    2
     9     3     4   ar
    10     4     5    1
    11     4     6   ar
    12     6     1   ar
    13     6     7    1
@<TRIPOS>MOLECULE
*****
 13 13 0 0 0
SMALL
GASTEIGER

@<TRIPOS>ATOM
      1 C          63.6534   82.8272   11.8863 C.ar    1  UNL1        0.1178
      2 N          63.7288   83.7011   13.1031 N.ar    1  UNL1       -0.2269
      3 CA         62.8014   83.1360   14.1378 C.ar    1  UNL1        0.1510
      4 C          62.1529   81.9128   13.5605 C.ar    1  UNL1        0.1376
      5 CL         61.1532   81.0347   14.2530 Cl      1  UNL1       -0.0616
      6 N          62.6795   81.7220   12.1689 N.ar    1  UNL1       -0.3320
      7 H          62.4297   80.9984   11.5499 H       1  UNL1        0.1679
      8 C          62.5642   83.6958   15.5090 C.2     1  UNL1        0.2555
      9 O          61.8436   85.0013   15.6719 O.2     1  UNL1       -0.2814
     10 C          64.4179   83.0239   10.6107 C.3     1  UNL1        0.0637
     11 C          63.7944   83.7733    9.4707 C.3     1  UNL1        0.0079
     12 C          62.5489   85.9000    8.6485 C.3     1  UNL1        0.0000
     13 C          62.8810   84.9312    9.7445 C.3     1  UNL1        0.0005
@<TRIPOS>BOND
     1    12    13    1
     2    13    11    1
     3    11    10    1
     4    10     1    1
     5     1     2   ar
     6     2     3   ar
     7     3     8    1
     8     8     9    2
     9     3     4   ar
    10     4     5    1
    11     4     6   ar
    12     6     1   ar
    13     6     7    1
@<TRIPOS>MOLECULE
*****
 13 13 0 0 0
SMALL
GASTEIGER

@<TRIPOS>ATOM
      1 C          66.5593   92.8303   12.5137 C.ar    1  UNL1        0.1178
      2 N          67.4262   92.4611   11.3466 N.ar    1  UNL1       -0.2269
      3 CA         67.2782   93.5285   10.3032 C.ar    1  UNL1        0.1510
      4 C          66.3199   94.5575   10.8254 C.ar    1  UNL1        0.1376
      5 CL         65.8827   95.7999   10.1076 Cl      1  UNL1       -0.0616
      6 N          65.8756   94.1260   12.1916 N.ar    1  UNL1       -0.3320
      7 H          65.2459   94.6085   12.7746 H       1  UNL1        0.1679
      8 C          67.9676   93.5612    8.9714 C.2     1  UNL1        0.2555
      9 O          68.5773   92.3102    8.4115 O.2     1  UNL1       -0.2814
     10 C          66.4035   92.0423   13.7805 C.3     1  UNL1        0.0637
     11 C          67.6131   91.6697   14.5856 C.3     1  UNL1        0.0079
     12 C          68.5129   93.7302   15.8874 C.3     1  UNL1        0.0000
     13 C          67.8922   92.3646   15.8852 C.3     1  UNL1        0.0005
@<TRIPOS>BOND
     1    12    13    1
     2    13    11    1
     3    11    10    1
     4    10     1    1
     5     1     2   ar
     6     2     3   ar
     7     3     8    1
     8     8     9    2
     9     3     4   ar
    10     4     5    1
    11     4     6   ar
    12     6     1   ar
    13     6     7    1
@<TRIPOS>MOLECULE
*****
 13 13 0 0 0
SMALL
GASTEIGER

@<TRIPOS>ATOM
      1 C          62.1518   85.3962   11.3351 C.ar    1  UNL1        0.1178
      2 N          62.4408   85.4996   12.8033 N.ar    1  UNL1       -0.2269
      3 CA         63.3989   84.4037   13.1655 C.ar    1  UNL1        0.1510
      4 C          63.7021   83.6230   11.9210 C.ar    1  UNL1        0.1376
      5 CL         64.6155   82.4372   11.8247 Cl      1  UNL1       -0.0616
      6 N          62.9313   84.2365   10.7898 N.ar    1  UNL1       -0.3320
      7 H          62.9362   83.9314    9.8538 H       1  UNL1        0.1679
      8 C          63.9560   84.1356   14.5321 C.2     1  UNL1        0.2555
      9 O          63.7402   82.8007   15.1814 O.2     1  UNL1       -0.2814
     10 C          61.2429   86.2948   10.5500 C.3     1  UNL1        0.0637
     11 C          61.5426   86.5924    9.1107 C.3     1  UNL1        0.0079
     12 C          59.2359   86.7627    7.9275 C.3     1  UNL1        0.0000
     13 C          60.5962   86.1402    8.0385 C.3     1  UNL1        0.0005
@<TRIPOS>BOND
     1    12    13    1
     2    13    11    1
     3    11    10    1
     4    10     1    1
     5     1     2   ar
     6     2     3   ar
     7     3     8    1
     8     8     9    2
     9     3     4   ar
    10     4     5    1
    11     4     6   ar
    12     6     1   ar
    13     6     7    1
@<TRIPOS>MOLECULE
*****
 13 13 0 0 0
SMALL
GASTEIGER

@<TRIPOS>ATOM
      1 C          66.7900   93.3795   11.8237 C.ar    1  UNL1        0.1178
      2 N          66.6702   94.6047   10.9667 N.ar    1  UNL1       -0.2269
      3 CA         67.3862   94.3392    9.6756 C.ar    1  UNL1        0.1510
      4 C          67.9486   92.9499    9.7346 C.ar    1  UNL1        0.1376
      5 CL         68.7404   92.2726    8.6556 Cl      1  UNL1       -0.0616
      6 N          67.5801   92.3568   11.0622 N.ar    1  UNL1       -0.3320
      7 H          67.8155   91.4546   11.3783 H       1  UNL1        0.1679
      8 C          67.5169   95.2953    8.5271 C.2     1  UNL1        0.2555
      9 O          66.3972   96.2409    8.2073 O.2     1  UNL1       -0.2814
     10 C          66.2199   93.2072   13.2003 C.3     1  UNL1        0.0637
     11 C          66.4123   91.9139   13.9353 C.3     1  UNL1        0.0079
     12 C          67.6909   92.5592   16.1030 C.3     1  UNL1        0.0000
     13 C          67.5874   91.7392   14.8511 C.3     1  UNL1        0.0005
@<TRIPOS>BOND
     1    12    13    1
     2    13    11    1
     3    11    10    1
     4    10     1    1
     5     1     2   ar
     6     2     3   ar
     7     3     8    1
     8     8     9    2
     9     3     4   ar
    10     4     5    1
    11     4     6   ar
    12     6     1   ar
    13     6     7    1
