@<TRIPOS>MOLECULE
*****
 25 28 0 0 0
SMALL
GASTEIGER

@<TRIPOS>ATOM
      1 C          62.9120   85.1745   15.9455 C.ar    1  UNL1        0.1840
      2 N          62.2454   85.2210   17.2885 N.ar    1  UNL1       -0.1274
      3 N          62.2745   86.6408   17.7714 N.ar    1  UNL1       -0.1315
      4 C          62.9592   87.4718   16.7270 C.ar    1  UNL1        0.1636
      5 N          63.3531   86.5655   15.5985 N.ar    1  UNL1       -0.2944
      6 C          64.0627   87.1240   14.4008 C.3     1  UNL1        0.1302
      7 C          64.3782   88.5888   14.3316 C.3     1  UNL1        0.1186
      8 N          63.9843   89.4950   15.4600 N.am    1  UNL1       -0.2670
      9 C          64.2999   90.9599   15.3907 C.2     1  UNL1        0.2494
     10 O          63.9059   91.8661   16.5192 O.2     1  UNL1       -0.2699
     11 C          63.2747   88.9365   16.6578 C.3     1  UNL1        0.1599
     12 C          61.0857   80.7154   14.0010 C.3     1  UNL1        0.0521
     13 C          62.1907   81.7221   14.1260 C.ar    1  UNL1        0.0595
     14 C          63.4875   81.5058   13.4038 C.ar    1  UNL1        0.0148
     15 C          64.5925   82.5125   13.5289 C.ar    1  UNL1        0.0029
     16 C          64.4007   83.7354   14.3761 C.ar    1  UNL1        0.0222
     17 C          63.1038   83.9516   15.0983 C.ar    1  UNL1        0.1167
     18 N          61.9989   82.9449   14.9732 N.ar    1  UNL1       -0.2466
     19 C          65.0094   91.5184   14.1930 C.ar    1  UNL1        0.0537
     20 C          66.4314   91.9807   14.3117 C.ar    1  UNL1        0.0068
     21 C          67.1409   92.5392   13.1139 C.ar    1  UNL1        0.0298
     22 C          66.4284   92.6354   11.7975 C.ar    1  UNL1        0.1401
     23 F          67.1380   93.1939   10.5997 F       1  UNL1       -0.2042
     24 C          65.0064   92.1731   11.6788 C.ar    1  UNL1        0.0298
     25 C          64.2969   91.6146   12.8765 C.ar    1  UNL1        0.0068
@<TRIPOS>BOND
     1    12    13    1
     2    13    14   ar
     3    14    15   ar
     4    15    16   ar
     5    16    17   ar
     6    17     1    1
     7     1     2   ar
     8     2     3   ar
     9     3     4   ar
    10     4     5   ar
    11     5     6    1
    12     6     7    1
    13     7     8    1
    14     8     9   am
    15     9    10    2
    16     9    19    1
    17    19    20   ar
    18    20    21   ar
    19    21    22   ar
    20    22    23    1
    21    22    24   ar
    22    24    25   ar
    23     8    11    1
    24    17    18   ar
    25    18    13   ar
    26     5     1   ar
    27    25    19   ar
    28    11     4    1
@<TRIPOS>MOLECULE
*****
 25 28 0 0 0
SMALL
GASTEIGER

@<TRIPOS>ATOM
      1 C          61.8672   89.0144   11.1733 C.ar    1  UNL1        0.1840
      2 N          61.7561   88.5475   12.5945 N.ar    1  UNL1       -0.1274
      3 N          62.6575   89.4024   13.4350 N.ar    1  UNL1       -0.1315
      4 C          63.3256   90.3978   12.5334 C.ar    1  UNL1        0.1636
      5 N          62.8372   90.1580   11.1356 N.ar    1  UNL1       -0.2944
      6 C          63.3387   91.0119   10.0090 C.3     1  UNL1        0.1302
      7 C          64.3288   92.1056   10.2803 C.3     1  UNL1        0.1186
      8 N          64.8172   92.3454   11.6781 N.am    1  UNL1       -0.2670
      9 C          65.8073   93.4391   11.9493 C.2     1  UNL1        0.2494
     10 O          66.2958   93.6789   13.3471 O.2     1  UNL1       -0.2699
     11 C          64.3156   91.4915   12.8047 C.3     1  UNL1        0.1599
     12 C          59.2350   89.6852    6.7437 C.3     1  UNL1        0.0521
     13 C          59.8204   88.7742    7.7817 C.ar    1  UNL1        0.0595
     14 C          59.6752   87.2878    7.6429 C.ar    1  UNL1        0.0148
     15 C          60.2606   86.3768    8.6809 C.ar    1  UNL1        0.0029
     16 C          60.9912   86.9524    9.8577 C.ar    1  UNL1        0.0222
     17 C          61.1365   88.4389    9.9965 C.ar    1  UNL1        0.1167
     18 N          60.5511   89.3498    8.9585 N.ar    1  UNL1       -0.2466
     19 C          66.3089   94.2931   10.8227 C.ar    1  UNL1        0.0537
     20 C          67.3182   93.7448    9.8580 C.ar    1  UNL1        0.0068
     21 C          67.8197   94.5988    8.7313 C.ar    1  UNL1        0.0298
     22 C          67.3120   96.0010    8.5695 C.ar    1  UNL1        0.1401
     23 F          67.8136   96.8549    7.4430 F       1  UNL1       -0.2042
     24 C          66.3027   96.5492    9.5343 C.ar    1  UNL1        0.0298
     25 C          65.8012   95.6953   10.6609 C.ar    1  UNL1        0.0068
@<TRIPOS>BOND
     1    12    13    1
     2    13    14   ar
     3    14    15   ar
     4    15    16   ar
     5    16    17   ar
     6    17     1    1
     7     1     2   ar
     8     2     3   ar
     9     3     4   ar
    10     4     5   ar
    11     5     6    1
    12     6     7    1
    13     7     8    1
    14     8     9   am
    15     9    10    2
    16     9    19    1
    17    19    20   ar
    18    20    21   ar
    19    21    22   ar
    20    22    23    1
    21    22    24   ar
    22    24    25   ar
    23     8    11    1
    24    17    18   ar
    25    18    13   ar
    26     5     1   ar
    27    25    19   ar
    28    11     4    1
@<TRIPOS>MOLECULE
*****
 25 28 0 0 0
SMALL
GASTEIGER

@<TRIPOS>ATOM
      1 C          64.0180   90.9786   14.4146 C.ar    1  UNL1        0.1840
      2 N          63.7730   91.6891   15.7128 N.ar    1  UNL1       -0.1274
      3 N          63.4309   90.6586   16.7477 N.ar    1  UNL1       -0.1315
      4 C          63.4644   89.3113   16.0892 C.ar    1  UNL1        0.1636
      5 N          63.8273   89.5091   14.6472 N.ar    1  UNL1       -0.2944
      6 C          63.9371   88.3255   13.7323 C.3     1  UNL1        0.1302
      7 C          63.6841   86.9442   14.2594 C.3     1  UNL1        0.1186
      8 N          63.3212   86.7464   15.7013 N.am    1  UNL1       -0.2670
      9 C          63.0682   85.3650   16.2284 C.2     1  UNL1        0.2494
     10 O          62.7054   85.1672   17.6703 O.2     1  UNL1       -0.2699
     11 C          63.2114   87.9300   16.6162 C.3     1  UNL1        0.1599
     12 C          66.6330   94.6125   11.7771 C.3     1  UNL1        0.0521
     13 C          65.6961   93.4412   11.7936 C.ar    1  UNL1        0.0595
     14 C          65.1299   92.9156   10.5079 C.ar    1  UNL1        0.0148
     15 C          64.1930   91.7443   10.5244 C.ar    1  UNL1        0.0029
     16 C          63.8223   91.0987   11.8266 C.ar    1  UNL1        0.0222
     17 C          64.3886   91.6243   13.1124 C.ar    1  UNL1        0.1167
     18 N          65.3255   92.7956   13.0958 N.ar    1  UNL1       -0.2466
     19 C          63.1781   84.1814   15.3135 C.ar    1  UNL1        0.0537
     20 C          62.0206   83.2392   15.1638 C.ar    1  UNL1        0.0068
     21 C          62.1305   82.0556   14.2488 C.ar    1  UNL1        0.0298
     22 C          63.3978   81.8142   13.4837 C.ar    1  UNL1        0.1401
     23 F          63.5077   80.6307   12.5688 F       1  UNL1       -0.2042
     24 C          64.5553   82.7564   13.6334 C.ar    1  UNL1        0.0298
     25 C          64.4455   83.9400   14.5483 C.ar    1  UNL1        0.0068
@<TRIPOS>BOND
     1    12    13    1
     2    13    14   ar
     3    14    15   ar
     4    15    16   ar
     5    16    17   ar
     6    17     1    1
     7     1     2   ar
     8     2     3   ar
     9     3     4   ar
    10     4     5   ar
    11     5     6    1
    12     6     7    1
    13     7     8    1
    14     8     9   am
    15     9    10    2
    16     9    19    1
    17    19    20   ar
    18    20    21   ar
    19    21    22   ar
    20    22    23    1
    21    22    24   ar
    22    24    25   ar
    23     8    11    1
    24    17    18   ar
    25    18    13   ar
    26     5     1   ar
    27    25    19   ar
    28    11     4    1
@<TRIPOS>MOLECULE
*****
 25 28 0 0 0
SMALL
GASTEIGER

@<TRIPOS>ATOM
      1 C          64.1302   91.0119   13.1761 C.ar    1  UNL1        0.1840
      2 N          63.4247   91.8484   12.1501 N.ar    1  UNL1       -0.1274
      3 N          62.6403   90.9286   11.2620 N.ar    1  UNL1       -0.1315
      4 C          62.8610   89.5237   11.7391 C.ar    1  UNL1        0.1636
      5 N          63.7819   89.5752   12.9221 N.ar    1  UNL1       -0.2944
      6 C          64.1842   88.3072   13.6151 C.3     1  UNL1        0.1302
      7 C          63.6656   86.9877   13.1252 C.3     1  UNL1        0.1186
      8 N          62.7448   86.9363   11.9422 N.am    1  UNL1       -0.2670
      9 C          62.2263   85.6167   11.4523 C.2     1  UNL1        0.2494
     10 O          61.3054   85.5652   10.2693 O.2     1  UNL1       -0.2699
     11 C          62.3425   88.2042   11.2492 C.3     1  UNL1        0.1599
     12 C          68.8288   92.5287   14.7956 C.3     1  UNL1        0.0521
     13 C          67.3760   92.2809   15.0747 C.ar    1  UNL1        0.0595
     14 C          66.8197   92.5437   16.4427 C.ar    1  UNL1        0.0148
     15 C          65.3669   92.2958   16.7219 C.ar    1  UNL1        0.0029
     16 C          64.4704   91.7853   15.6330 C.ar    1  UNL1        0.0222
     17 C          65.0267   91.5225   14.2649 C.ar    1  UNL1        0.1167
     18 N          66.4795   91.7703   13.9859 N.ar    1  UNL1       -0.2466
     19 C          62.6286   84.3487   12.1453 C.ar    1  UNL1        0.0537
     20 C          62.3028   84.1511   13.5961 C.ar    1  UNL1        0.0068
     21 C          62.7052   82.8830   14.2891 C.ar    1  UNL1        0.0298
     22 C          63.4332   81.8127   13.5313 C.ar    1  UNL1        0.1401
     23 F          63.8355   80.5447   14.2244 F       1  UNL1       -0.2042
     24 C          63.7589   82.0103   12.0805 C.ar    1  UNL1        0.0298
     25 C          63.3566   83.2783   11.3875 C.ar    1  UNL1        0.0068
@<TRIPOS>BOND
     1    12    13    1
     2    13    14   ar
     3    14    15   ar
     4    15    16   ar
     5    16    17   ar
     6    17     1    1
     7     1     2   ar
     8     2     3   ar
     9     3     4   ar
    10     4     5   ar
    11     5     6    1
    12     6     7    1
    13     7     8    1
    14     8     9   am
    15     9    10    2
    16     9    19    1
    17    19    20   ar
    18    20    21   ar
    19    21    22   ar
    20    22    23    1
    21    22    24   ar
    22    24    25   ar
    23     8    11    1
    24    17    18   ar
    25    18    13   ar
    26     5     1   ar
    27    25    19   ar
    28    11     4    1
@<TRIPOS>MOLECULE
*****
 25 28 0 0 0
SMALL
GASTEIGER

@<TRIPOS>ATOM
      1 C          65.7782   93.0925   12.2858 C.ar    1  UNL1        0.1840
      2 N          66.3010   92.8120   13.6635 N.ar    1  UNL1       -0.1274
      3 N          65.7084   91.5151   14.1290 N.ar    1  UNL1       -0.1315
      4 C          64.8193   90.9940   13.0390 C.ar    1  UNL1        0.1636
      5 N          64.8625   91.9689   11.8999 N.ar    1  UNL1       -0.2944
      6 C          64.0623   91.7075   10.6584 C.3     1  UNL1        0.1302
      7 C          63.2191   90.4713   10.5560 C.3     1  UNL1        0.1186
      8 N          63.1759   89.4963   11.6951 N.am    1  UNL1       -0.2670
      9 C          62.3326   88.2600   11.5927 C.2     1  UNL1        0.2494
     10 O          62.2895   87.2851   12.7319 O.2     1  UNL1       -0.2699
     11 C          63.9761   89.7577   12.9367 C.3     1  UNL1        0.1599
     12 C          67.1826   95.1208    7.7127 C.3     1  UNL1        0.0521
     13 C          66.8146   95.3011    9.1556 C.ar    1  UNL1        0.0595
     14 C          66.7808   96.6757    9.7549 C.ar    1  UNL1        0.0148
     15 C          66.4128   96.8560   11.1979 C.ar    1  UNL1        0.0029
     16 C          66.0786   95.6616   12.0415 C.ar    1  UNL1        0.0222
     17 C          66.1124   94.2869   11.4422 C.ar    1  UNL1        0.1167
     18 N          66.4804   94.1067    9.9993 N.ar    1  UNL1       -0.2466
     19 C          61.5325   87.9987   10.3512 C.ar    1  UNL1        0.0537
     20 C          61.6136   86.6627    9.6740 C.ar    1  UNL1        0.0068
     21 C          60.8135   86.4014    8.4324 C.ar    1  UNL1        0.0298
     22 C          59.9322   87.4760    7.8681 C.ar    1  UNL1        0.1401
     23 F          59.1321   87.2147    6.6265 F       1  UNL1       -0.2042
     24 C          59.8510   88.8120    8.5453 C.ar    1  UNL1        0.0298
     25 C          60.6512   89.0733    9.7868 C.ar    1  UNL1        0.0068
@<TRIPOS>BOND
     1    12    13    1
     2    13    14   ar
     3    14    15   ar
     4    15    16   ar
     5    16    17   ar
     6    17     1    1
     7     1     2   ar
     8     2     3   ar
     9     3     4   ar
    10     4     5   ar
    11     5     6    1
    12     6     7    1
    13     7     8    1
    14     8     9   am
    15     9    10    2
    16     9    19    1
    17    19    20   ar
    18    20    21   ar
    19    21    22   ar
    20    22    23    1
    21    22    24   ar
    22    24    25   ar
    23     8    11    1
    24    17    18   ar
    25    18    13   ar
    26     5     1   ar
    27    25    19   ar
    28    11     4    1
@<TRIPOS>MOLECULE
*****
 25 28 0 0 0
SMALL
GASTEIGER

@<TRIPOS>ATOM
      1 C          65.5074   92.5641   11.9136 C.ar    1  UNL1        0.1840
      2 N          65.5179   92.7241   13.4050 N.ar    1  UNL1       -0.1274
      3 N          64.4194   91.8731   13.9700 N.ar    1  UNL1       -0.1315
      4 C          63.7301   91.1873   12.8279 C.ar    1  UNL1        0.1636
      5 N          64.4025   91.6144   11.5569 N.ar    1  UNL1       -0.2944
      6 C          63.9218   91.0833   10.2390 C.3     1  UNL1        0.1302
      7 C          62.7688   90.1251   10.1921 C.3     1  UNL1        0.1186
      8 N          62.0963   89.6980   11.4632 N.am    1  UNL1       -0.2670
      9 C          60.9432   88.7398   11.4162 C.2     1  UNL1        0.2494
     10 O          60.2708   88.3127   12.6872 O.2     1  UNL1       -0.2699
     11 C          62.5770   90.2291   12.7810 C.3     1  UNL1        0.1599
     12 C          67.1253   96.8529    9.4663 C.3     1  UNL1        0.0521
     13 C          67.2474   95.3803    9.7246 C.ar    1  UNL1        0.0595
     14 C          68.3004   94.5797    9.0175 C.ar    1  UNL1        0.0148
     15 C          68.4225   93.1071    9.2758 C.ar    1  UNL1        0.0029
     16 C          67.4915   92.4353   10.2411 C.ar    1  UNL1        0.0222
     17 C          66.4384   93.2360   10.9482 C.ar    1  UNL1        0.1167
     18 N          66.3164   94.7085   10.6899 N.ar    1  UNL1       -0.2466
     19 C          60.4625   88.2087   10.0984 C.ar    1  UNL1        0.0537
     20 C          59.8476   89.1382    9.0944 C.ar    1  UNL1        0.0068
     21 C          59.3669   88.6070    7.7765 C.ar    1  UNL1        0.0298
     22 C          59.5012   87.1464    7.4625 C.ar    1  UNL1        0.1401
     23 F          59.0205   86.6153    6.1447 F       1  UNL1       -0.2042
     24 C          60.1161   86.2169    8.4665 C.ar    1  UNL1        0.0298
     25 C          60.5968   86.7480    9.7844 C.ar    1  UNL1        0.0068
@<TRIPOS>BOND
     1    12    13    1
     2    13    14   ar
     3    14    15   ar
     4    15    16   ar
     5    16    17   ar
     6    17     1    1
     7     1     2   ar
     8     2     3   ar
     9     3     4   ar
    10     4     5   ar
    11     5     6    1
    12     6     7    1
    13     7     8    1
    14     8     9   am
    15     9    10    2
    16     9    19    1
    17    19    20   ar
    18    20    21   ar
    19    21    22   ar
    20    22    23    1
    21    22    24   ar
    22    24    25   ar
    23     8    11    1
    24    17    18   ar
    25    18    13   ar
    26     5     1   ar
    27    25    19   ar
    28    11     4    1
@<TRIPOS>MOLECULE
*****
 25 28 0 0 0
SMALL
GASTEIGER

@<TRIPOS>ATOM
      1 C          63.0951   84.6017   14.7766 C.ar    1  UNL1        0.1840
      2 N          62.4099   84.3434   16.0858 N.ar    1  UNL1       -0.1274
      3 N          62.3679   85.6338   16.8494 N.ar    1  UNL1       -0.1315
      4 C          63.0270   86.6896   16.0122 C.ar    1  UNL1        0.1636
      5 N          63.4765   86.0517   14.7312 N.ar    1  UNL1       -0.2944
      6 C          64.1749   86.8736   13.6888 C.3     1  UNL1        0.1302
      7 C          64.4239   88.3334   13.9274 C.3     1  UNL1        0.1186
      8 N          63.9744   88.9713   15.2085 N.am    1  UNL1       -0.2670
      9 C          64.2235   90.4311   15.4471 C.2     1  UNL1        0.2494
     10 O          63.7740   91.0690   16.7282 O.2     1  UNL1       -0.2699
     11 C          63.2760   88.1494   16.2509 C.3     1  UNL1        0.1599
     12 C          62.3972   79.8382   12.8216 C.3     1  UNL1        0.0521
     13 C          63.0046   81.2063   12.7241 C.ar    1  UNL1        0.0595
     14 C          63.8705   81.5606   11.5516 C.ar    1  UNL1        0.0148
     15 C          64.4779   82.9286   11.4541 C.ar    1  UNL1        0.0029
     16 C          64.2195   83.9423   12.5291 C.ar    1  UNL1        0.0222
     17 C          63.3536   83.5880   13.7017 C.ar    1  UNL1        0.1167
     18 N          62.7462   82.2200   13.7991 N.ar    1  UNL1       -0.2466
     19 C          64.9219   91.2530   14.4047 C.ar    1  UNL1        0.0537
     20 C          66.3231   91.7328   14.6426 C.ar    1  UNL1        0.0068
     21 C          67.0215   92.5547   13.6002 C.ar    1  UNL1        0.0298
     22 C          66.3188   92.8969   12.3199 C.ar    1  UNL1        0.1401
     23 F          67.0173   93.7187   11.2775 F       1  UNL1       -0.2042
     24 C          64.9177   92.4171   12.0820 C.ar    1  UNL1        0.0298
     25 C          64.2192   91.5952   13.1244 C.ar    1  UNL1        0.0068
@<TRIPOS>BOND
     1    12    13    1
     2    13    14   ar
     3    14    15   ar
     4    15    16   ar
     5    16    17   ar
     6    17     1    1
     7     1     2   ar
     8     2     3   ar
     9     3     4   ar
    10     4     5   ar
    11     5     6    1
    12     6     7    1
    13     7     8    1
    14     8     9   am
    15     9    10    2
    16     9    19    1
    17    19    20   ar
    18    20    21   ar
    19    21    22   ar
    20    22    23    1
    21    22    24   ar
    22    24    25   ar
    23     8    11    1
    24    17    18   ar
    25    18    13   ar
    26     5     1   ar
    27    25    19   ar
    28    11     4    1
@<TRIPOS>MOLECULE
*****
 25 28 0 0 0
SMALL
GASTEIGER

@<TRIPOS>ATOM
      1 C          64.3240   90.8765   15.3869 C.ar    1  UNL1        0.1840
      2 N          63.7686   91.1898   16.7446 N.ar    1  UNL1       -0.1274
      3 N          63.1699   89.9324   17.3019 N.ar    1  UNL1       -0.1315
      4 C          63.3553   88.8420   16.2886 C.ar    1  UNL1        0.1636
      5 N          64.0686   89.4255   15.1051 N.ar    1  UNL1       -0.2944
      6 C          64.3934   88.5603   13.9237 C.3     1  UNL1        0.1302
      7 C          64.0049   87.1115   13.9258 C.3     1  UNL1        0.1186
      8 N          63.2916   86.5280   15.1093 N.am    1  UNL1       -0.2670
      9 C          62.9031   85.0791   15.1114 C.2     1  UNL1        0.2494
     10 O          62.1898   84.4956   16.2949 O.2     1  UNL1       -0.2699
     11 C          62.9668   87.3932   16.2907 C.3     1  UNL1        0.1599
     12 C          65.0682   92.8172   10.6246 C.3     1  UNL1        0.0521
     13 C          65.3859   92.8147   12.0906 C.ar    1  UNL1        0.0595
     14 C          66.3933   93.7800   12.6413 C.ar    1  UNL1        0.0148
     15 C          66.7110   93.7774   14.1073 C.ar    1  UNL1        0.0029
     16 C          66.0212   92.8096   15.0225 C.ar    1  UNL1        0.0222
     17 C          65.0137   91.8443   14.4717 C.ar    1  UNL1        0.1167
     18 N          64.6961   91.8469   13.0058 N.ar    1  UNL1       -0.2466
     19 C          63.2279   84.2138   13.9300 C.ar    1  UNL1        0.0537
     20 C          64.0771   82.9902   14.1074 C.ar    1  UNL1        0.0068
     21 C          64.4018   82.1249   12.9259 C.ar    1  UNL1        0.0298
     22 C          63.8774   82.4833   11.5671 C.ar    1  UNL1        0.1401
     23 F          64.2022   81.6180   10.3857 F       1  UNL1       -0.2042
     24 C          63.0282   83.7070   11.3896 C.ar    1  UNL1        0.0298
     25 C          62.7034   84.5722   12.5710 C.ar    1  UNL1        0.0068
@<TRIPOS>BOND
     1    12    13    1
     2    13    14   ar
     3    14    15   ar
     4    15    16   ar
     5    16    17   ar
     6    17     1    1
     7     1     2   ar
     8     2     3   ar
     9     3     4   ar
    10     4     5   ar
    11     5     6    1
    12     6     7    1
    13     7     8    1
    14     8     9   am
    15     9    10    2
    16     9    19    1
    17    19    20   ar
    18    20    21   ar
    19    21    22   ar
    20    22    23    1
    21    22    24   ar
    22    24    25   ar
    23     8    11    1
    24    17    18   ar
    25    18    13   ar
    26     5     1   ar
    27    25    19   ar
    28    11     4    1
@<TRIPOS>MOLECULE
*****
 25 28 0 0 0
SMALL
GASTEIGER

@<TRIPOS>ATOM
      1 C          62.1654   85.4395   11.6872 C.ar    1  UNL1        0.1840
      2 N          61.3841   85.4783   10.4074 N.ar    1  UNL1       -0.1274
      3 N          61.4390   86.8789    9.8732 N.ar    1  UNL1       -0.1315
      4 C          62.2543   87.7056   10.8229 C.ar    1  UNL1        0.1636
      5 N          62.7032   86.8160   11.9440 N.ar    1  UNL1       -0.2944
      6 C          63.5437   87.3743   13.0539 C.3     1  UNL1        0.1302
      7 C          63.9352   88.8222   13.0426 C.3     1  UNL1        0.1186
      8 N          63.4863   89.7118   11.9214 N.am    1  UNL1       -0.2670
      9 C          63.8779   91.1598   11.9102 C.2     1  UNL1        0.2494
     10 O          63.4290   92.0494   10.7890 O.2     1  UNL1       -0.2699
     11 C          62.6458   89.1535   10.8116 C.3     1  UNL1        0.1599
     12 C          62.7783   80.3045   12.1934 C.3     1  UNL1        0.0521
     13 C          62.6790   81.6680   12.8107 C.ar    1  UNL1        0.0595
     14 C          62.7868   81.8274   14.2983 C.ar    1  UNL1        0.0148
     15 C          62.6875   83.1909   14.9155 C.ar    1  UNL1        0.0029
     16 C          62.4803   84.3949   14.0452 C.ar    1  UNL1        0.0222
     17 C          62.3725   84.2354   12.5575 C.ar    1  UNL1        0.1167
     18 N          62.4719   82.8720   11.9404 N.ar    1  UNL1       -0.2466
     19 C          64.7184   91.7181   13.0200 C.ar    1  UNL1        0.0537
     20 C          64.5031   91.2540   14.4301 C.ar    1  UNL1        0.0068
     21 C          65.3436   91.8124   15.5400 C.ar    1  UNL1        0.0298
     22 C          66.3994   92.8347   15.2398 C.ar    1  UNL1        0.1401
     23 F          67.2399   93.3930   16.3497 F       1  UNL1       -0.2042
     24 C          66.6147   93.2988   13.8297 C.ar    1  UNL1        0.0298
     25 C          65.7742   92.7405   12.7199 C.ar    1  UNL1        0.0068
@<TRIPOS>BOND
     1    12    13    1
     2    13    14   ar
     3    14    15   ar
     4    15    16   ar
     5    16    17   ar
     6    17     1    1
     7     1     2   ar
     8     2     3   ar
     9     3     4   ar
    10     4     5   ar
    11     5     6    1
    12     6     7    1
    13     7     8    1
    14     8     9   am
    15     9    10    2
    16     9    19    1
    17    19    20   ar
    18    20    21   ar
    19    21    22   ar
    20    22    23    1
    21    22    24   ar
    22    24    25   ar
    23     8    11    1
    24    17    18   ar
    25    18    13   ar
    26     5     1   ar
    27    25    19   ar
    28    11     4    1
