@<TRIPOS>MOLECULE
*****
 33 38 0 0 0
SMALL
GASTEIGER

@<TRIPOS>ATOM
      1 C          64.2598   81.8120   13.1407 C.ar    1  UNL1        0.0990
      2 C          64.4171   83.1431   13.8140 C.ar    1  UNL1        0.0223
      3 C          63.8526   84.3777   13.1761 C.ar    1  UNL1        0.0233
      4 C          63.8521   85.8164   13.6008 C.ar    1  UNL1        0.0549
      5 C          64.4159   86.5070   14.8071 C.ar    1  UNL1        0.1048
      6 N          64.2576   87.9902   14.9645 N.ar    1  UNL1       -0.2119
      7 C          63.5355   88.7829   13.9157 C.ar    1  UNL1        0.2231
      8 N          62.9717   88.0923   12.7094 N.ar    1  UNL1       -0.1961
      9 C          63.1300   86.6091   12.5520 C.ar    1  UNL1        0.1482
     10 N          62.6842   85.6604   11.4790 N.ar    1  UNL1       -0.3132
     11 C          63.1308   84.2813   11.8648 C.ar    1  UNL1        0.0804
     12 C          62.9734   82.9503   11.1914 C.ar    1  UNL1        0.1160
     13 N          63.5379   81.7156   11.8293 N.ar    1  UNL1       -0.2408
     14 C          61.9251   86.0264   10.2382 C.3     1  UNL1        0.0869
     15 C          60.6523   86.8185   10.1846 C.3     1  UNL1        0.0226
     16 C          60.2460   86.9463    8.7464 C.3     1  UNL1        0.0020
     17 C          61.2675   86.2331    7.9110 C.3     1  UNL1        0.0020
     18 C          62.3053   85.6646    8.8330 C.3     1  UNL1        0.0226
     19 N          63.3772   90.2663   14.0731 N.pl3   1  UNL1       -0.2679
     20 H          62.7744   90.6265   14.7631 H       1  UNL1        0.1565
     21 C          64.1373   91.2007   13.1792 C.ar    1  UNL1        0.1344
     22 C          63.8494   91.2310   11.7074 C.ar    1  UNL1        0.0358
     23 C          64.6095   92.1655   10.8136 C.ar    1  UNL1        0.0190
     24 C          65.6575   93.0696   11.3915 C.ar    1  UNL1        0.0675
     25 C          65.9455   93.0394   12.8634 C.ar    1  UNL1        0.1147
     26 N          65.1853   92.1049   13.7572 N.ar    1  UNL1       -0.2277
     27 N          66.4177   94.0041   10.4977 N.pl3   1  UNL1       -0.3035
     28 C          66.3389   95.4853   10.7206 C.3     1  UNL1        0.1079
     29 C          67.0991   96.4198    9.8267 C.3     1  UNL1        0.0903
     30 N          67.9380   95.8730    8.7099 N.3     1  UNL1       -0.2946
     31 C          68.0167   94.3918    8.4870 C.3     1  UNL1        0.0903
     32 C          67.2566   93.4574    9.3808 C.3     1  UNL1        0.1079
     33 H          68.8913   96.1975    8.8717 H       1  UNL1        0.1233
@<TRIPOS>BOND
     1     1     2   ar
     2     2     3   ar
     3     3     4   ar
     4     4     5   ar
     5     5     6   ar
     6     6     7   ar
     7     7    19    1
     8    19    21    1
     9    21    22   ar
    10    22    23   ar
    11    23    24   ar
    12    24    27    1
    13    27    28    1
    14    28    29    1
    15    29    30    1
    16    30    31    1
    17    31    32    1
    18    24    25   ar
    19    25    26   ar
    20     7     8   ar
    21     8     9   ar
    22     9    10   ar
    23    10    14    1
    24    14    15    1
    25    15    16    1
    26    16    17    1
    27    17    18    1
    28    10    11   ar
    29    11    12   ar
    30    12    13   ar
    31    13     1   ar
    32    11     3   ar
    33     9     4   ar
    34    18    14    1
    35    26    21   ar
    36    32    27    1
    37    19    20    1
    38    30    33    1
@<TRIPOS>MOLECULE
*****
 33 38 0 0 0
SMALL
GASTEIGER

@<TRIPOS>ATOM
      1 C          63.2679   81.0376   13.4598 C.ar    1  UNL1        0.0990
      2 C          63.6026   82.2344   14.2998 C.ar    1  UNL1        0.0223
      3 C          63.4366   83.6152   13.7379 C.ar    1  UNL1        0.0233
      4 C          63.6841   84.9737   14.3239 C.ar    1  UNL1        0.0549
      5 C          64.1811   85.4108   15.6699 C.ar    1  UNL1        0.1048
      6 N          64.3303   86.8716   15.9762 N.ar    1  UNL1       -0.2119
      7 C          63.9825   87.8953   14.9364 C.ar    1  UNL1        0.2231
      8 N          63.4855   87.4581   13.5903 N.ar    1  UNL1       -0.1961
      9 C          63.3363   85.9974   13.2841 C.ar    1  UNL1        0.1482
     10 N          62.8739   85.2715   12.0555 N.ar    1  UNL1       -0.3132
     11 C          62.9360   83.7993   12.3360 C.ar    1  UNL1        0.0804
     12 C          62.6013   82.6025   11.4960 C.ar    1  UNL1        0.1160
     13 N          62.7672   81.2217   12.0579 N.ar    1  UNL1       -0.2408
     14 C          62.4279   85.9064   10.7718 C.3     1  UNL1        0.0869
     15 C          62.7641   85.4308    9.3894 C.3     1  UNL1        0.0226
     16 C          62.1113   86.3589    8.4083 C.3     1  UNL1        0.0020
     17 C          61.3716   87.4080    9.1843 C.3     1  UNL1        0.0020
     18 C          61.5672   87.1284   10.6450 C.3     1  UNL1        0.0226
     19 N          64.1317   89.3561   15.2426 N.pl3   1  UNL1       -0.2679
     20 H          63.8707   89.7030   16.1262 H       1  UNL1        0.1565
     21 C          64.6787   90.2884   14.2026 C.ar    1  UNL1        0.1344
     22 C          66.0261   90.9191   14.3948 C.ar    1  UNL1        0.0358
     23 C          66.5730   91.8513   13.3548 C.ar    1  UNL1        0.0190
     24 C          65.7726   92.1530   12.1226 C.ar    1  UNL1        0.0675
     25 C          64.4253   91.5223   11.9304 C.ar    1  UNL1        0.1147
     26 N          63.8783   90.5900   12.9704 N.ar    1  UNL1       -0.2277
     27 N          66.3196   93.0852   11.0826 N.pl3   1  UNL1       -0.3035
     28 C          65.8175   94.4964   11.0017 C.3     1  UNL1        0.1079
     29 C          66.3645   95.4287    9.9616 C.3     1  UNL1        0.0903
     30 N          67.4136   94.9498    9.0024 N.3     1  UNL1       -0.2946
     31 C          67.9158   93.5388    9.0833 C.3     1  UNL1        0.0903
     32 C          67.3688   92.6065   10.1233 C.3     1  UNL1        0.1079
     33 H          68.2234   95.5579    9.1241 H       1  UNL1        0.1233
@<TRIPOS>BOND
     1     1     2   ar
     2     2     3   ar
     3     3     4   ar
     4     4     5   ar
     5     5     6   ar
     6     6     7   ar
     7     7    19    1
     8    19    21    1
     9    21    22   ar
    10    22    23   ar
    11    23    24   ar
    12    24    27    1
    13    27    28    1
    14    28    29    1
    15    29    30    1
    16    30    31    1
    17    31    32    1
    18    24    25   ar
    19    25    26   ar
    20     7     8   ar
    21     8     9   ar
    22     9    10   ar
    23    10    14    1
    24    14    15    1
    25    15    16    1
    26    16    17    1
    27    17    18    1
    28    10    11   ar
    29    11    12   ar
    30    12    13   ar
    31    13     1   ar
    32    11     3   ar
    33     9     4   ar
    34    18    14    1
    35    26    21   ar
    36    32    27    1
    37    19    20    1
    38    30    33    1
@<TRIPOS>MOLECULE
*****
 33 38 0 0 0
SMALL
GASTEIGER

@<TRIPOS>ATOM
      1 C          63.0743   80.1800   12.1658 C.ar    1  UNL1        0.0990
      2 C          62.7712   81.3416   11.2664 C.ar    1  UNL1        0.0223
      3 C          62.7031   82.7296   11.8311 C.ar    1  UNL1        0.0233
      4 C          62.4266   84.0596   11.1948 C.ar    1  UNL1        0.0549
      5 C          62.1248   84.4514    9.7788 C.ar    1  UNL1        0.1048
      6 N          61.8870   85.8916    9.4336 N.ar    1  UNL1       -0.2119
      7 C          61.9511   86.9400   10.5045 C.ar    1  UNL1        0.2231
      8 N          62.2529   86.5481   11.9206 N.ar    1  UNL1       -0.1961
      9 C          62.4906   85.1079   12.2657 C.ar    1  UNL1        0.1482
     10 N          62.8067   84.4259   13.5638 N.ar    1  UNL1       -0.3132
     11 C          62.9380   82.9560   13.2952 C.ar    1  UNL1        0.0804
     12 C          63.2411   81.7944   14.1945 C.ar    1  UNL1        0.1160
     13 N          63.3092   80.4064   13.6298 N.ar    1  UNL1       -0.2408
     14 C          62.9639   85.0960   14.8965 C.3     1  UNL1        0.0869
     15 C          64.0448   86.0652   15.2741 C.3     1  UNL1        0.0226
     16 C          63.8167   86.4829   16.6966 C.3     1  UNL1        0.0020
     17 C          62.5950   85.7719   17.1982 C.3     1  UNL1        0.0020
     18 C          62.0678   84.9147   16.0857 C.3     1  UNL1        0.0226
     19 N          61.7134   88.3803   10.1593 N.pl3   1  UNL1       -0.2679
     20 H          60.9831   88.6255    9.5462 H       1  UNL1        0.1565
     21 C          62.5883   89.4470   10.7481 C.ar    1  UNL1        0.1344
     22 C          62.9758   90.6388    9.9238 C.ar    1  UNL1        0.0358
     23 C          63.8507   91.7055   10.5127 C.ar    1  UNL1        0.0190
     24 C          64.3381   91.5803   11.9257 C.ar    1  UNL1        0.0675
     25 C          63.9506   90.3885   12.7500 C.ar    1  UNL1        0.1147
     26 N          63.0757   89.3218   12.1612 N.ar    1  UNL1       -0.2277
     27 N          65.2130   92.6470   12.5146 N.pl3   1  UNL1       -0.3035
     28 C          65.5846   93.8483   11.6968 C.3     1  UNL1        0.1079
     29 C          66.4596   94.9150   12.2857 C.3     1  UNL1        0.0903
     30 N          66.9629   94.7803   13.6923 N.3     1  UNL1       -0.2946
     31 C          66.5913   93.5791   14.5100 C.3     1  UNL1        0.0903
     32 C          65.7164   92.5124   13.9212 C.3     1  UNL1        0.1079
     33 H          66.6312   95.5984   14.2033 H       1  UNL1        0.1233
@<TRIPOS>BOND
     1     1     2   ar
     2     2     3   ar
     3     3     4   ar
     4     4     5   ar
     5     5     6   ar
     6     6     7   ar
     7     7    19    1
     8    19    21    1
     9    21    22   ar
    10    22    23   ar
    11    23    24   ar
    12    24    27    1
    13    27    28    1
    14    28    29    1
    15    29    30    1
    16    30    31    1
    17    31    32    1
    18    24    25   ar
    19    25    26   ar
    20     7     8   ar
    21     8     9   ar
    22     9    10   ar
    23    10    14    1
    24    14    15    1
    25    15    16    1
    26    16    17    1
    27    17    18    1
    28    10    11   ar
    29    11    12   ar
    30    12    13   ar
    31    13     1   ar
    32    11     3   ar
    33     9     4   ar
    34    18    14    1
    35    26    21   ar
    36    32    27    1
    37    19    20    1
    38    30    33    1
