@<TRIPOS>MOLECULE
*****
 31 34 0 0 0
SMALL
GASTEIGER

@<TRIPOS>ATOM
      1 C          64.2113   89.5123   14.6467 C.ar    1  UNL1        0.2168
      2 N          63.5488   89.4291   15.9899 N.ar    1  UNL1       -0.1210
      3 N          63.2403   87.9873   16.2661 N.ar    1  UNL1       -0.1393
      4 C          63.7121   87.1795   15.0935 C.ar    1  UNL1        0.1351
      5 S          64.3122   88.1220   14.0927 S.2     1  UNL1       -0.0262
      6 C          63.5013   90.4478   11.6020 C.3     1  UNL1        0.0520
      7 C          64.3627   91.1957   12.5759 C.ar    1  UNL1        0.0615
      8 C          65.0489   92.5050   12.3213 C.ar    1  UNL1        0.0228
      9 C          65.7994   92.8843   13.5634 C.ar    1  UNL1        0.0789
     10 N          65.5770   91.8093   14.5857 N.ar    1  UNL1       -0.1683
     11 N          64.6890   90.7658   13.9754 N.ar    1  UNL1       -0.2100
     12 C          66.5884   94.1594   13.6031 C.3     1  UNL1        0.0647
     13 C          66.6268   95.0552   12.4007 C.3     1  UNL1        0.0788
     14 N          65.8763   94.6760   11.1586 N.3     1  UNL1       -0.2682
     15 C          65.0873   93.4009   11.1188 C.3     1  UNL1        0.1016
     16 C          65.9148   95.5720    9.9561 C.3     1  UNL1        0.0783
     17 C          67.1664   95.6728    9.1357 C.3     1  UNL1        0.0590
     18 C          67.9410   94.4345    8.7940 C.2     1  UNL1        0.0517
     19 O          68.8202   93.7914    9.8252 O.co2   1  UNL1       -0.5491
     20 O          67.8365   93.8394    7.4211 O.co2   1  UNL1       -0.5491
     21 C          63.6030   85.6907   14.9474 C.ar    1  UNL1        0.0267
     22 C          62.8698   84.8874   15.9805 C.ar    1  UNL1        0.0052
     23 C          62.7607   83.3986   15.8343 C.ar    1  UNL1        0.0378
     24 C          63.3848   82.7130   14.6551 C.ar    1  UNL1        0.1488
     25 C          64.1179   83.5162   13.6221 C.ar    1  UNL1        0.0916
     26 CL         64.7420   82.8306   12.4428 Cl      1  UNL1       -0.0791
     27 C          64.2270   85.0051   13.7682 C.ar    1  UNL1        0.0165
     28 O          63.2757   81.2241   14.5089 O.3     1  UNL1       -0.4783
     29 C          62.1849   80.6310   13.6671 C.3     1  UNL1        0.1662
     30 C          62.5270   79.8968   12.4046 C.3     1  UNL1        0.0472
     31 C          60.7521   80.7722   14.0878 C.3     1  UNL1        0.0472
@<TRIPOS>UNITY_ATOM_ATTR
19 1
charge -1
@<TRIPOS>BOND
     1     6     7    1
     2     7     8   ar
     3     8     9   ar
     4     9    10   ar
     5    10    11   ar
     6    11     1    1
     7     1     2   ar
     8     2     3   ar
     9     3     4   ar
    10     4    21    1
    11    21    22   ar
    12    22    23   ar
    13    23    24   ar
    14    24    28    1
    15    28    29    1
    16    29    30    1
    17    29    31    1
    18    24    25   ar
    19    25    26    1
    20    25    27   ar
    21     4     5   ar
    22     9    12    1
    23    12    13    1
    24    13    14    1
    25    14    16    1
    26    16    17    1
    27    17    18    1
    28    18    19   ar
    29    18    20   ar
    30    14    15    1
    31    11     7   ar
    32     5     1   ar
    33    15     8    1
    34    27    21   ar
@<TRIPOS>MOLECULE
*****
 31 34 0 0 0
SMALL
GASTEIGER

@<TRIPOS>ATOM
      1 C          64.0179   87.7035   14.7601 C.ar    1  UNL1        0.2168
      2 N          63.3777   87.2952   16.0537 N.ar    1  UNL1       -0.1210
      3 N          63.0191   85.8420   15.9550 N.ar    1  UNL1       -0.1393
      4 C          63.4377   85.3522   14.6005 C.ar    1  UNL1        0.1351
      5 S          64.0550   86.5027   13.8620 S.2     1  UNL1       -0.0262
      6 C          63.3090   89.4104   12.0706 C.3     1  UNL1        0.0520
      7 C          64.2051   89.8569   13.1875 C.ar    1  UNL1        0.0615
      8 C          64.9326   91.1664   13.2643 C.ar    1  UNL1        0.0228
      9 C          65.7082   91.1912   14.5480 C.ar    1  UNL1        0.0789
     10 N          65.4599   89.8970   15.2646 N.ar    1  UNL1       -0.1683
     11 N          64.5309   89.0724   14.4238 N.ar    1  UNL1       -0.2100
     12 C          66.5402   92.3890   14.8986 C.3     1  UNL1        0.0647
     13 C          66.5967   93.5620   13.9654 C.3     1  UNL1        0.0788
     14 N          65.8212   93.5372   12.6817 N.3     1  UNL1       -0.2682
     15 C          64.9891   92.3394   12.3311 C.3     1  UNL1        0.1016
     16 C          65.8777   94.7103   11.7485 C.3     1  UNL1        0.0783
     17 C          66.0386   94.4884   10.2738 C.3     1  UNL1        0.0590
     18 C          67.2877   94.9432    9.5788 C.2     1  UNL1        0.0517
     19 O          67.2744   96.1982    8.7573 O.co2   1  UNL1       -0.5491
     20 O          68.5500   94.1429    9.7052 O.co2   1  UNL1       -0.5491
     21 C          63.2688   83.9570   14.0763 C.ar    1  UNL1        0.0267
     22 C          64.3319   83.3466   13.2119 C.ar    1  UNL1        0.0052
     23 C          64.1629   81.9514   12.6879 C.ar    1  UNL1        0.0378
     24 C          62.9307   81.1665   13.0282 C.ar    1  UNL1        0.1488
     25 C          61.8677   81.7769   13.8925 C.ar    1  UNL1        0.0916
     26 CL         60.6354   80.9920   14.2329 Cl      1  UNL1       -0.0791
     27 C          62.0366   83.1721   14.4166 C.ar    1  UNL1        0.0165
     28 O          62.7617   79.7712   12.5041 O.3     1  UNL1       -0.4783
     29 C          62.8193   79.5125   11.0277 C.3     1  UNL1        0.1662
     30 C          62.9944   80.6555   10.0722 C.3     1  UNL1        0.0472
     31 C          62.7017   78.1108   10.5067 C.3     1  UNL1        0.0472
@<TRIPOS>UNITY_ATOM_ATTR
19 1
charge -1
@<TRIPOS>BOND
     1     6     7    1
     2     7     8   ar
     3     8     9   ar
     4     9    10   ar
     5    10    11   ar
     6    11     1    1
     7     1     2   ar
     8     2     3   ar
     9     3     4   ar
    10     4    21    1
    11    21    22   ar
    12    22    23   ar
    13    23    24   ar
    14    24    28    1
    15    28    29    1
    16    29    30    1
    17    29    31    1
    18    24    25   ar
    19    25    26    1
    20    25    27   ar
    21     4     5   ar
    22     9    12    1
    23    12    13    1
    24    13    14    1
    25    14    16    1
    26    16    17    1
    27    17    18    1
    28    18    19   ar
    29    18    20   ar
    30    14    15    1
    31    11     7   ar
    32     5     1   ar
    33    15     8    1
    34    27    21   ar
@<TRIPOS>MOLECULE
*****
 31 34 0 0 0
SMALL
GASTEIGER

@<TRIPOS>ATOM
      1 C          59.7224   91.8595    4.2153 C.ar    1  UNL1        0.2168
      2 N          58.2592   91.8270    4.5436 N.ar    1  UNL1       -0.1210
      3 N          58.0625   90.8820    5.6918 N.ar    1  UNL1       -0.1393
      4 C          59.4043   90.3305    6.0732 C.ar    1  UNL1        0.1351
      5 S          60.4301   90.9346    5.1607 S.2     1  UNL1       -0.0262
      6 C          62.7350   91.4415    3.0324 C.3     1  UNL1        0.0520
      7 C          61.7498   92.4817    2.5882 C.ar    1  UNL1        0.0615
      8 C          61.9765   93.5125    1.5223 C.ar    1  UNL1        0.0228
      9 C          60.7318   94.3417    1.4072 C.ar    1  UNL1        0.0789
     10 N          59.7360   93.8233    2.4020 N.ar    1  UNL1       -0.1683
     11 N          60.3651   92.6738    3.1319 N.ar    1  UNL1       -0.2100
     12 C          60.6661   95.4615    0.4115 C.3     1  UNL1        0.0647
     13 C          61.8450   95.7522   -0.4692 C.3     1  UNL1        0.0788
     14 N          63.0896   94.9230   -0.3541 N.3     1  UNL1       -0.2682
     15 C          63.1554   93.8031    0.6416 C.3     1  UNL1        0.1016
     16 C          64.2686   95.2137   -1.2349 C.3     1  UNL1        0.0783
     17 C          64.2026   94.9072   -2.7017 C.3     1  UNL1        0.0590
     18 C          63.4686   93.6901   -3.1814 C.2     1  UNL1        0.0517
     19 O          64.2247   92.4328   -3.4937 O.co2   1  UNL1       -0.5491
     20 O          61.9785   93.7304   -3.3488 O.co2   1  UNL1       -0.5491
     21 C          59.6730   89.3474    7.1738 C.ar    1  UNL1        0.0267
     22 C          59.1790   87.9360    7.0560 C.ar    1  UNL1        0.0052
     23 C          59.4478   86.9531    8.1567 C.ar    1  UNL1        0.0378
     24 C          60.2106   87.3815    9.3751 C.ar    1  UNL1        0.1488
     25 C          60.7046   88.7928    9.4929 C.ar    1  UNL1        0.0916
     26 CL         61.4674   89.2213   10.7114 Cl      1  UNL1       -0.0791
     27 C          60.4358   89.7758    8.3923 C.ar    1  UNL1        0.0165
     28 O          60.4794   86.3984   10.4758 O.3     1  UNL1       -0.4783
     29 C          61.8086   85.7080   10.5567 C.3     1  UNL1        0.1662
     30 C          62.6286   85.5119    9.3162 C.3     1  UNL1        0.0472
     31 C          62.3178   85.2138   11.8782 C.3     1  UNL1        0.0472
@<TRIPOS>UNITY_ATOM_ATTR
19 1
charge -1
@<TRIPOS>BOND
     1     6     7    1
     2     7     8   ar
     3     8     9   ar
     4     9    10   ar
     5    10    11   ar
     6    11     1    1
     7     1     2   ar
     8     2     3   ar
     9     3     4   ar
    10     4    21    1
    11    21    22   ar
    12    22    23   ar
    13    23    24   ar
    14    24    28    1
    15    28    29    1
    16    29    30    1
    17    29    31    1
    18    24    25   ar
    19    25    26    1
    20    25    27   ar
    21     4     5   ar
    22     9    12    1
    23    12    13    1
    24    13    14    1
    25    14    16    1
    26    16    17    1
    27    17    18    1
    28    18    19   ar
    29    18    20   ar
    30    14    15    1
    31    11     7   ar
    32     5     1   ar
    33    15     8    1
    34    27    21   ar
@<TRIPOS>MOLECULE
*****
 31 34 0 0 0
SMALL
GASTEIGER

@<TRIPOS>ATOM
      1 C          63.1598   88.9940   12.1326 C.ar    1  UNL1        0.2168
      2 N          61.8276   88.7426   11.4907 N.ar    1  UNL1       -0.1210
      3 N          61.4800   87.2978   11.6947 N.ar    1  UNL1       -0.1393
      4 C          62.5974   86.6562   12.4628 C.ar    1  UNL1        0.1351
      5 S          63.6355   87.7046   12.7334 S.2     1  UNL1       -0.0262
      6 C          63.1269   91.2700    9.7941 C.3     1  UNL1        0.0520
      7 C          63.8732   91.3509   11.0927 C.ar    1  UNL1        0.0615
      8 C          64.7354   92.4922   11.5444 C.ar    1  UNL1        0.0228
      9 C          65.2835   92.1514   12.8985 C.ar    1  UNL1        0.0789
     10 N          64.7599   90.7995   13.2836 N.ar    1  UNL1       -0.1683
     11 N          63.8883   90.3048   12.1676 N.ar    1  UNL1       -0.2100
     12 C          66.1884   93.1161   13.6059 C.3     1  UNL1        0.0647
     13 C          66.5453   94.4216   12.9591 C.3     1  UNL1        0.0788
     14 N          65.9973   94.7624   11.6051 N.3     1  UNL1       -0.2682
     15 C          65.0923   93.7977   10.8977 C.3     1  UNL1        0.1016
     16 C          66.3542   96.0680   10.9583 C.3     1  UNL1        0.0783
     17 C          67.4391   96.1206    9.9239 C.3     1  UNL1        0.0590
     18 C          67.7921   94.8890    9.1437 C.2     1  UNL1        0.0517
     19 O          67.1704   94.6487    7.8000 O.co2   1  UNL1       -0.5491
     20 O          68.7666   93.8978    9.7073 O.co2   1  UNL1       -0.5491
     21 C          62.6648   85.2187   12.8859 C.ar    1  UNL1        0.0267
     22 C          62.5314   84.8565   14.3354 C.ar    1  UNL1        0.0052
     23 C          62.5988   83.4190   14.7584 C.ar    1  UNL1        0.0378
     24 C          62.7996   82.3438   13.7321 C.ar    1  UNL1        0.1488
     25 C          62.9330   82.7060   12.2827 C.ar    1  UNL1        0.0916
     26 CL         63.1337   81.6306   11.2562 Cl      1  UNL1       -0.0791
     27 C          62.8656   84.1435   11.8595 C.ar    1  UNL1        0.0165
     28 O          62.8670   80.9062   14.1552 O.3     1  UNL1       -0.4783
     29 C          61.7625   79.9621   13.7825 C.3     1  UNL1        0.1662
     30 C          60.3463   80.2770   14.1635 C.3     1  UNL1        0.0472
     31 C          62.0742   78.7032   13.0290 C.3     1  UNL1        0.0472
@<TRIPOS>UNITY_ATOM_ATTR
19 1
charge -1
@<TRIPOS>BOND
     1     6     7    1
     2     7     8   ar
     3     8     9   ar
     4     9    10   ar
     5    10    11   ar
     6    11     1    1
     7     1     2   ar
     8     2     3   ar
     9     3     4   ar
    10     4    21    1
    11    21    22   ar
    12    22    23   ar
    13    23    24   ar
    14    24    28    1
    15    28    29    1
    16    29    30    1
    17    29    31    1
    18    24    25   ar
    19    25    26    1
    20    25    27   ar
    21     4     5   ar
    22     9    12    1
    23    12    13    1
    24    13    14    1
    25    14    16    1
    26    16    17    1
    27    17    18    1
    28    18    19   ar
    29    18    20   ar
    30    14    15    1
    31    11     7   ar
    32     5     1   ar
    33    15     8    1
    34    27    21   ar
@<TRIPOS>MOLECULE
*****
 31 34 0 0 0
SMALL
GASTEIGER

@<TRIPOS>ATOM
      1 C          62.3713   87.0251   12.0685 C.ar    1  UNL1        0.2168
      2 N          61.2160   87.7942   11.4996 N.ar    1  UNL1       -0.1210
      3 N          61.6228   89.2344   11.3981 N.ar    1  UNL1       -0.1393
      4 C          63.0296   89.3554   11.9043 C.ar    1  UNL1        0.1351
      5 S          63.4922   87.9900   12.3186 S.2     1  UNL1       -0.0262
      6 C          62.8272   84.6756    9.8500 C.3     1  UNL1        0.0520
      7 C          62.6102   84.4702   11.3199 C.ar    1  UNL1        0.0615
      8 C          62.5646   83.1487   12.0282 C.ar    1  UNL1        0.0228
      9 C          62.3269   83.4119   13.4856 C.ar    1  UNL1        0.0789
     10 N          62.2255   84.8960   13.6781 N.ar    1  UNL1       -0.1683
     11 N          62.4006   85.5501   12.3396 N.ar    1  UNL1       -0.2100
     12 C          62.2334   82.2661   14.4492 C.3     1  UNL1        0.0647
     13 C          62.3777   80.8572   13.9553 C.3     1  UNL1        0.0788
     14 N          62.6154   80.5940   12.4978 N.3     1  UNL1       -0.2682
     15 C          62.7089   81.7397   11.5342 C.3     1  UNL1        0.1016
     16 C          62.7597   79.1849   12.0039 C.3     1  UNL1        0.0783
     17 C          62.7735   78.9044   10.5305 C.3     1  UNL1        0.0590
     18 C          63.3813   77.6337   10.0146 C.2     1  UNL1        0.0517
     19 O          62.9868   76.3164   10.6138 O.co2   1  UNL1       -0.5491
     20 O          64.3834   77.6804    8.8995 O.co2   1  UNL1       -0.5491
     21 C          63.8328   90.6198   11.9824 C.ar    1  UNL1        0.0267
     22 C          63.9313   91.5209   10.7873 C.ar    1  UNL1        0.0052
     23 C          64.7345   92.7853   10.8655 C.ar    1  UNL1        0.0378
     24 C          65.4392   93.1486   12.1389 C.ar    1  UNL1        0.1488
     25 C          65.3407   92.2475   13.3339 C.ar    1  UNL1        0.0916
     26 CL         66.0455   92.6108   14.6074 Cl      1  UNL1       -0.0791
     27 C          64.5375   90.9831   13.2558 C.ar    1  UNL1        0.0165
     28 O          66.2425   94.4130   12.2171 O.3     1  UNL1       -0.4783
     29 C          66.4134   95.2696   10.9976 C.3     1  UNL1        0.1662
     30 C          65.6763   96.5712   10.8859 C.3     1  UNL1        0.0472
     31 C          67.3215   94.8246    9.8898 C.3     1  UNL1        0.0472
@<TRIPOS>UNITY_ATOM_ATTR
19 1
charge -1
@<TRIPOS>BOND
     1     6     7    1
     2     7     8   ar
     3     8     9   ar
     4     9    10   ar
     5    10    11   ar
     6    11     1    1
     7     1     2   ar
     8     2     3   ar
     9     3     4   ar
    10     4    21    1
    11    21    22   ar
    12    22    23   ar
    13    23    24   ar
    14    24    28    1
    15    28    29    1
    16    29    30    1
    17    29    31    1
    18    24    25   ar
    19    25    26    1
    20    25    27   ar
    21     4     5   ar
    22     9    12    1
    23    12    13    1
    24    13    14    1
    25    14    16    1
    26    16    17    1
    27    17    18    1
    28    18    19   ar
    29    18    20   ar
    30    14    15    1
    31    11     7   ar
    32     5     1   ar
    33    15     8    1
    34    27    21   ar
@<TRIPOS>MOLECULE
*****
 31 34 0 0 0
SMALL
GASTEIGER

@<TRIPOS>ATOM
      1 C          59.4493   91.9237    4.1059 C.ar    1  UNL1        0.2168
      2 N          58.0039   91.8655    4.5027 N.ar    1  UNL1       -0.1210
      3 N          57.8821   90.9383    5.6755 N.ar    1  UNL1       -0.1393
      4 C          59.2522   90.4233    6.0035 C.ar    1  UNL1        0.1351
      5 S          60.2208   91.0323    5.0334 S.2     1  UNL1       -0.0262
      6 C          62.4562   91.6311    2.8721 C.3     1  UNL1        0.0520
      7 C          61.4046   92.5969    2.4122 C.ar    1  UNL1        0.0615
      8 C          61.5506   93.5977    1.3045 C.ar    1  UNL1        0.0228
      9 C          60.2586   94.3507    1.1870 C.ar    1  UNL1        0.0789
     10 N          59.3143   93.8153    2.2221 N.ar    1  UNL1       -0.1683
     11 N          60.0225   92.7313    2.9794 N.ar    1  UNL1       -0.2100
     12 C          60.1091   95.4267    0.1527 C.3     1  UNL1        0.0647
     13 C          61.2515   95.7496   -0.7642 C.3     1  UNL1        0.0788
     14 N          62.5434   94.9966   -0.6466 N.3     1  UNL1       -0.2682
     15 C          62.6930   93.9206    0.3877 C.3     1  UNL1        0.1016
     16 C          63.6859   95.3196   -1.5635 C.3     1  UNL1        0.0783
     17 C          65.0977   95.0872   -1.1133 C.3     1  UNL1        0.0590
     18 C          65.7420   96.0353   -0.1458 C.2     1  UNL1        0.0517
     19 O          66.9403   96.8346   -0.5643 O.co2   1  UNL1       -0.5491
     20 O          65.1880   96.1841    1.2402 O.co2   1  UNL1       -0.5491
     21 C          59.5939   89.4672    7.1076 C.ar    1  UNL1        0.0267
     22 C          59.8873   89.9854    8.4844 C.ar    1  UNL1        0.0052
     23 C          60.2289   89.0292    9.5885 C.ar    1  UNL1        0.0378
     24 C          60.2771   87.5550    9.3159 C.ar    1  UNL1        0.1488
     25 C          59.9836   87.0369    7.9392 C.ar    1  UNL1        0.0916
     26 CL         60.0318   85.5626    7.6665 Cl      1  UNL1       -0.0791
     27 C          59.6420   87.9930    6.8350 C.ar    1  UNL1        0.0165
     28 O          60.6187   86.5988   10.4200 O.3     1  UNL1       -0.4783
     29 C          62.0537   86.3473   10.7771 C.3     1  UNL1        0.1662
     30 C          62.7657   87.2726   11.7188 C.3     1  UNL1        0.0472
     31 C          62.7768   85.1703   10.1923 C.3     1  UNL1        0.0472
@<TRIPOS>UNITY_ATOM_ATTR
19 1
charge -1
@<TRIPOS>BOND
     1     6     7    1
     2     7     8   ar
     3     8     9   ar
     4     9    10   ar
     5    10    11   ar
     6    11     1    1
     7     1     2   ar
     8     2     3   ar
     9     3     4   ar
    10     4    21    1
    11    21    22   ar
    12    22    23   ar
    13    23    24   ar
    14    24    28    1
    15    28    29    1
    16    29    30    1
    17    29    31    1
    18    24    25   ar
    19    25    26    1
    20    25    27   ar
    21     4     5   ar
    22     9    12    1
    23    12    13    1
    24    13    14    1
    25    14    16    1
    26    16    17    1
    27    17    18    1
    28    18    19   ar
    29    18    20   ar
    30    14    15    1
    31    11     7   ar
    32     5     1   ar
    33    15     8    1
    34    27    21   ar
@<TRIPOS>MOLECULE
*****
 31 34 0 0 0
SMALL
GASTEIGER

@<TRIPOS>ATOM
      1 C          63.7847   87.3267   14.8254 C.ar    1  UNL1        0.2168
      2 N          63.5190   88.0254   16.1259 N.ar    1  UNL1       -0.1210
      3 N          63.9595   89.4522   15.9840 N.ar    1  UNL1       -0.1393
      4 C          64.4976   89.6353   14.5958 C.ar    1  UNL1        0.1351
      5 S          64.3895   88.3217   13.8798 S.2     1  UNL1       -0.0262
      6 C          61.2582   85.5984   15.9564 C.3     1  UNL1        0.0520
      7 C          62.3350   85.0915   15.0434 C.ar    1  UNL1        0.0615
      8 C          62.4395   83.7012   14.4900 C.ar    1  UNL1        0.0228
      9 C          63.6655   83.6364   13.6281 C.ar    1  UNL1        0.0789
     10 N          64.3186   84.9866   13.6489 N.ar    1  UNL1       -0.1683
     11 N          63.4963   85.8859   14.5236 N.ar    1  UNL1       -0.2100
     12 C          64.0287   82.3563   12.9358 C.3     1  UNL1        0.0647
     13 C          63.1660   81.1411   13.1053 C.3     1  UNL1        0.0788
     14 N          61.9400   81.2059   13.9672 N.3     1  UNL1       -0.2682
     15 C          61.5768   82.4860   14.6596 C.3     1  UNL1        0.1016
     16 C          61.0773   79.9905   14.1368 C.3     1  UNL1        0.0783
     17 C          59.5855   80.1096   14.0348 C.3     1  UNL1        0.0590
     18 C          58.7038   79.1897   14.8264 C.2     1  UNL1        0.0517
     19 O          57.8067   79.7444   15.8929 O.co2   1  UNL1       -0.5491
     20 O          58.7193   77.7152   14.5514 O.co2   1  UNL1       -0.5491
     21 C          65.0472   90.9085   14.0241 C.ar    1  UNL1        0.0267
     22 C          64.6129   91.3689   12.6641 C.ar    1  UNL1        0.0052
     23 C          65.1625   92.6420   12.0924 C.ar    1  UNL1        0.0378
     24 C          66.1463   93.4548   12.8806 C.ar    1  UNL1        0.1488
     25 C          66.5806   92.9945   14.2405 C.ar    1  UNL1        0.0916
     26 CL         67.5645   93.8074   15.0288 Cl      1  UNL1       -0.0791
     27 C          66.0310   91.7213   14.8123 C.ar    1  UNL1        0.0165
     28 O          66.6960   94.7281   12.3089 O.3     1  UNL1       -0.4783
     29 C          66.4774   95.0562   10.8616 C.3     1  UNL1        0.1662
     30 C          65.4271   96.0524   10.4687 C.3     1  UNL1        0.0472
     31 C          67.3091   94.3880    9.8072 C.3     1  UNL1        0.0472
@<TRIPOS>UNITY_ATOM_ATTR
19 1
charge -1
@<TRIPOS>BOND
     1     6     7    1
     2     7     8   ar
     3     8     9   ar
     4     9    10   ar
     5    10    11   ar
     6    11     1    1
     7     1     2   ar
     8     2     3   ar
     9     3     4   ar
    10     4    21    1
    11    21    22   ar
    12    22    23   ar
    13    23    24   ar
    14    24    28    1
    15    28    29    1
    16    29    30    1
    17    29    31    1
    18    24    25   ar
    19    25    26    1
    20    25    27   ar
    21     4     5   ar
    22     9    12    1
    23    12    13    1
    24    13    14    1
    25    14    16    1
    26    16    17    1
    27    17    18    1
    28    18    19   ar
    29    18    20   ar
    30    14    15    1
    31    11     7   ar
    32     5     1   ar
    33    15     8    1
    34    27    21   ar
@<TRIPOS>MOLECULE
*****
 31 34 0 0 0
SMALL
GASTEIGER

@<TRIPOS>ATOM
      1 C          72.1879   77.5917   13.4788 C.ar    1  UNL1        0.2168
      2 N          72.5686   78.8606   14.1824 N.ar    1  UNL1       -0.1210
      3 N          72.7505   79.9291   13.1454 N.ar    1  UNL1       -0.1393
      4 C          72.4823   79.3205   11.8009 C.ar    1  UNL1        0.1351
      5 S          72.1346   77.8760   12.0070 S.2     1  UNL1       -0.0262
      6 C          73.5377   74.7315   12.6745 C.3     1  UNL1        0.0520
      7 C          72.5299   74.9559   13.7627 C.ar    1  UNL1        0.0615
      8 C          71.9657   73.9050   14.6721 C.ar    1  UNL1        0.0228
      9 C          70.9965   74.5701   15.6040 C.ar    1  UNL1        0.0789
     10 N          70.9618   76.0322   15.2703 N.ar    1  UNL1       -0.1683
     11 N          71.9095   76.2706   14.1324 N.ar    1  UNL1       -0.2100
     12 C          70.2708   73.7586   16.6358 C.3     1  UNL1        0.0647
     13 C          70.5143   72.2819   16.7359 C.3     1  UNL1        0.0788
     14 N          71.4835   71.6168   15.8040 N.3     1  UNL1       -0.2682
     15 C          72.2091   72.4283   14.7722 C.3     1  UNL1        0.1016
     16 C          71.7269   70.1400   15.9041 C.3     1  UNL1        0.0783
     17 C          72.2990   69.3933   14.7358 C.3     1  UNL1        0.0590
     18 C          71.5177   69.2844   13.4599 C.2     1  UNL1        0.0517
     19 O          70.3813   68.3107   13.3571 O.co2   1  UNL1       -0.5491
     20 O          71.8728   70.1492   12.2869 O.co2   1  UNL1       -0.5491
     21 C          72.5498   80.0316   10.4819 C.ar    1  UNL1        0.0267
     22 C          72.1131   81.4629   10.3782 C.ar    1  UNL1        0.0052
     23 C          72.1807   82.1739    9.0592 C.ar    1  UNL1        0.0378
     24 C          72.6850   81.4537    7.8439 C.ar    1  UNL1        0.1488
     25 C          73.1216   80.0225    7.9476 C.ar    1  UNL1        0.0916
     26 CL         73.6259   79.3022    6.7322 Cl      1  UNL1       -0.0791
     27 C          73.0541   79.3114    9.2666 C.ar    1  UNL1        0.0165
     28 O          72.7526   82.1647    6.5248 O.3     1  UNL1       -0.4783
     29 C          72.1452   81.5398    5.3039 C.3     1  UNL1        0.1662
     30 C          70.8078   80.8663    5.3925 C.3     1  UNL1        0.0472
     31 C          72.8751   81.5884    3.9944 C.3     1  UNL1        0.0472
@<TRIPOS>UNITY_ATOM_ATTR
19 1
charge -1
@<TRIPOS>BOND
     1     6     7    1
     2     7     8   ar
     3     8     9   ar
     4     9    10   ar
     5    10    11   ar
     6    11     1    1
     7     1     2   ar
     8     2     3   ar
     9     3     4   ar
    10     4    21    1
    11    21    22   ar
    12    22    23   ar
    13    23    24   ar
    14    24    28    1
    15    28    29    1
    16    29    30    1
    17    29    31    1
    18    24    25   ar
    19    25    26    1
    20    25    27   ar
    21     4     5   ar
    22     9    12    1
    23    12    13    1
    24    13    14    1
    25    14    16    1
    26    16    17    1
    27    17    18    1
    28    18    19   ar
    29    18    20   ar
    30    14    15    1
    31    11     7   ar
    32     5     1   ar
    33    15     8    1
    34    27    21   ar
@<TRIPOS>MOLECULE
*****
 31 34 0 0 0
SMALL
GASTEIGER

@<TRIPOS>ATOM
      1 C          63.5324   85.8098   14.4072 C.ar    1  UNL1        0.2168
      2 N          63.2761   86.3002   15.8014 N.ar    1  UNL1       -0.1210
      3 N          63.6066   87.7626   15.8465 N.ar    1  UNL1       -0.1393
      4 C          64.0671   88.1761   14.4801 C.ar    1  UNL1        0.1351
      5 S          64.0212   86.9692   13.5906 S.2     1  UNL1       -0.0262
      6 C          62.9473   84.9223   11.3218 C.3     1  UNL1        0.0520
      7 C          63.0656   83.9985   12.4976 C.ar    1  UNL1        0.0615
      8 C          62.9357   82.5045   12.4617 C.ar    1  UNL1        0.0228
      9 C          63.1244   81.9892   13.8577 C.ar    1  UNL1        0.0789
     10 N          63.3708   83.1646   14.7563 N.ar    1  UNL1       -0.1683
     11 N          63.3345   84.4064   13.9158 N.ar    1  UNL1       -0.2100
     12 C          63.0474   80.5162   14.1301 C.3     1  UNL1        0.0647
     13 C          62.7817   79.5585   13.0066 C.3     1  UNL1        0.0788
     14 N          62.5931   80.0739   11.6106 N.3     1  UNL1       -0.2682
     15 C          62.6701   81.5469   11.3381 C.3     1  UNL1        0.1016
     16 C          62.3274   79.1162   10.4871 C.3     1  UNL1        0.0783
     17 C          63.4636   78.6091    9.6494 C.3     1  UNL1        0.0590
     18 C          63.8717   77.1680    9.7324 C.2     1  UNL1        0.0517
     19 O          63.1202   76.2259   10.6255 O.co2   1  UNL1       -0.5491
     20 O          65.0313   76.6690    8.9222 O.co2   1  UNL1       -0.5491
     21 C          64.4978   89.5545   14.0745 C.ar    1  UNL1        0.0267
     22 C          63.8323   90.2380   12.9169 C.ar    1  UNL1        0.0052
     23 C          64.2630   91.6163   12.5114 C.ar    1  UNL1        0.0378
     24 C          65.3593   92.3112   13.2633 C.ar    1  UNL1        0.1488
     25 C          66.0247   91.6277   14.4208 C.ar    1  UNL1        0.0916
     26 CL         67.1210   92.3226   15.1728 Cl      1  UNL1       -0.0791
     27 C          65.5940   90.2494   14.8264 C.ar    1  UNL1        0.0165
     28 O          65.7900   93.6896   12.8577 O.3     1  UNL1       -0.4783
     29 C          66.2865   93.9407   11.4647 C.3     1  UNL1        0.1662
     30 C          66.1214   95.2955   10.8424 C.3     1  UNL1        0.0472
     31 C          66.9481   92.8370   10.6939 C.3     1  UNL1        0.0472
@<TRIPOS>UNITY_ATOM_ATTR
19 1
charge -1
@<TRIPOS>BOND
     1     6     7    1
     2     7     8   ar
     3     8     9   ar
     4     9    10   ar
     5    10    11   ar
     6    11     1    1
     7     1     2   ar
     8     2     3   ar
     9     3     4   ar
    10     4    21    1
    11    21    22   ar
    12    22    23   ar
    13    23    24   ar
    14    24    28    1
    15    28    29    1
    16    29    30    1
    17    29    31    1
    18    24    25   ar
    19    25    26    1
    20    25    27   ar
    21     4     5   ar
    22     9    12    1
    23    12    13    1
    24    13    14    1
    25    14    16    1
    26    16    17    1
    27    17    18    1
    28    18    19   ar
    29    18    20   ar
    30    14    15    1
    31    11     7   ar
    32     5     1   ar
    33    15     8    1
    34    27    21   ar
