@<TRIPOS>MOLECULE
*****
 36 40 0 0 0
SMALL
GASTEIGER

@<TRIPOS>ATOM
      1 C          63.5108   89.6159   12.0446 C.ar    1  UNL1        0.0978
      2 C          62.5789   90.2590   11.0607 C.ar    1  UNL1        0.1177
      3 N          61.5667   89.4260   10.3316 N.ar    1  UNL1       -0.2369
      4 C          61.4864   87.9500   10.5864 C.ar    1  UNL1        0.1458
      5 C          60.5985   86.8809   10.0218 C.ar    1  UNL1        0.1892
      6 N          60.9817   85.5771   10.6568 N.ar    1  UNL1       -0.1556
      7 N          62.1064   85.8404   11.6138 N.ar    1  UNL1       -0.2299
      8 C          62.4183   87.3069   11.5702 C.ar    1  UNL1        0.1798
      9 N          63.4305   88.1399   12.2993 N.ar    1  UNL1       -0.2242
     10 C          66.4912   93.8640   12.3120 C.3     1  UNL1        0.0017
     11 C          66.0133   92.5729   12.9074 C.3     1  UNL1        0.0194
     12 C          65.0010   91.7400   12.1783 C.3     1  UNL1        0.0289
     13 C          64.5231   90.4489   12.7737 C.2     1  UNL1       -0.0071
     14 C          65.0574   89.9906   14.0983 C.2     1  UNL1       -0.0275
     15 C          66.0696   90.8235   14.8274 C.3     1  UNL1        0.0417
     16 C          66.5476   92.1147   14.2320 C.3     1  UNL1        0.0621
     17 N          67.5598   92.9475   14.9611 N.3     1  UNL1       -0.2727
     18 C          67.2605   94.0106   15.9762 C.3     1  UNL1        0.0721
     19 C          68.5647   94.5837   16.4457 C.3     1  UNL1        0.0188
     20 C          69.6702   93.8747   15.7207 C.3     1  UNL1        0.0199
     21 C          69.0491   92.8636   14.8033 C.3     1  UNL1        0.0870
     22 C          69.7876   91.9320   13.8886 C.3     1  UNL1        0.1530
     23 O          69.2074   91.5769   12.5517 O.3     1  UNL1       -0.3806
     24 H          68.3918   91.0672   12.6783 H       1  UNL1        0.2105
     25 C          59.5173   87.0806    9.0015 C.1     1  UNL1        0.1232
     26 N          58.4361   87.2802    7.9812 N.1     1  UNL1       -0.1891
     27 C          62.7977   84.8169   12.4649 C.3     1  UNL1        0.1299
     28 C          63.4686   85.2317   13.7407 C.3     1  UNL1        0.0313
     29 C          62.8183   83.3784   12.0401 C.ar    1  UNL1        0.0106
     30 C          62.2767   82.3189   12.9534 C.ar    1  UNL1       -0.0007
     31 C          62.2973   80.8804   12.5286 C.ar    1  UNL1        0.0112
     32 C          62.8594   80.5015   11.1906 C.ar    1  UNL1        0.0585
     33 CL         62.8800   79.0630   10.7657 Cl      1  UNL1       -0.0822
     34 C          63.4010   81.5610   10.2773 C.ar    1  UNL1        0.0225
     35 C          63.3804   82.9995   10.7020 C.ar    1  UNL1        0.0563
     36 CL         63.9220   84.0590    9.7888 Cl      1  UNL1       -0.0825
@<TRIPOS>BOND
     1    11    10    1
     2    11    12    1
     3    12    13    1
     4    13     1    1
     5     1     2   ar
     6     2     3   ar
     7     3     4   ar
     8     4     5   ar
     9     5    25    1
    10    25    26    3
    11     5     6   ar
    12     6     7   ar
    13     7    27    1
    14    27    28    1
    15    27    29    1
    16    29    30   ar
    17    30    31   ar
    18    31    32   ar
    19    32    33    1
    20    32    34   ar
    21    34    35   ar
    22    35    36    1
    23     7     8   ar
    24     8     9   ar
    25    13    14    2
    26    14    15    1
    27    15    16    1
    28    16    17    1
    29    17    18    1
    30    18    19    1
    31    19    20    1
    32    20    21    1
    33    21    22    1
    34    22    23    1
    35    16    11    1
    36    21    17    1
    37     9     1   ar
    38     8     4   ar
    39    35    29   ar
    40    23    24    1
@<TRIPOS>MOLECULE
*****
 36 40 0 0 0
SMALL
GASTEIGER

@<TRIPOS>ATOM
      1 C          62.6481   89.8618   11.0050 C.ar    1  UNL1        0.0978
      2 C          61.5475   90.7354   10.4803 C.ar    1  UNL1        0.1177
      3 N          60.5481   90.1806    9.5091 N.ar    1  UNL1       -0.2369
      4 C          60.6492   88.7522    9.0626 C.ar    1  UNL1        0.1458
      5 C          59.8157   87.9332    8.1220 C.ar    1  UNL1        0.1892
      6 N          60.4012   86.5534    8.0654 N.ar    1  UNL1       -0.1556
      7 N          61.5965   86.5196    8.9711 N.ar    1  UNL1       -0.2299
      8 C          61.7498   87.8785    9.5874 C.ar    1  UNL1        0.1798
      9 N          62.7492   88.4333   10.5585 N.ar    1  UNL1       -0.2242
     10 C          66.1007   93.5179   12.3136 C.3     1  UNL1        0.0017
     11 C          65.3740   92.2446   12.6306 C.3     1  UNL1        0.0194
     12 C          64.3744   91.6898   11.6593 C.3     1  UNL1        0.0289
     13 C          63.6476   90.4165   11.9762 C.2     1  UNL1       -0.0071
     14 C          63.9204   89.6979   13.2643 C.2     1  UNL1       -0.0275
     15 C          64.9198   90.2526   14.2356 C.3     1  UNL1        0.0417
     16 C          65.6467   91.5260   13.9187 C.3     1  UNL1        0.0621
     17 N          66.6461   92.0807   14.8899 N.3     1  UNL1       -0.2727
     18 C          66.3343   92.6893   16.2250 C.3     1  UNL1        0.0721
     19 C          67.6284   93.1089   16.8568 C.3     1  UNL1        0.0188
     20 C          68.7401   92.7597   15.9121 C.3     1  UNL1        0.0199
     21 C          68.1330   92.1243   14.6966 C.3     1  UNL1        0.0870
     22 C          68.8814   91.6208   13.4981 C.3     1  UNL1        0.1530
     23 O          70.3234   91.9866   13.3061 O.3     1  UNL1       -0.3806
     24 H          70.3972   92.9417   13.1540 H       1  UNL1        0.2105
     25 C          58.6087   88.4103    7.3700 C.1     1  UNL1        0.1232
     26 N          57.4017   88.8875    6.6181 N.1     1  UNL1       -0.1891
     27 C          62.4830   85.3349    9.2172 C.3     1  UNL1        0.1299
     28 C          63.1513   84.6458    8.0647 C.3     1  UNL1        0.0313
     29 C          62.7012   84.8392   10.6161 C.ar    1  UNL1        0.0106
     30 C          62.0343   85.5293   11.7689 C.ar    1  UNL1       -0.0007
     31 C          62.2525   85.0335   13.1677 C.ar    1  UNL1        0.0112
     32 C          63.1375   83.8477   13.4137 C.ar    1  UNL1        0.0585
     33 CL         63.3557   83.3519   14.8125 Cl      1  UNL1       -0.0822
     34 C          63.8044   83.1576   12.2608 C.ar    1  UNL1        0.0225
     35 C          63.5862   83.6534   10.8620 C.ar    1  UNL1        0.0563
     36 CL         64.2531   82.9633    9.7092 Cl      1  UNL1       -0.0825
@<TRIPOS>BOND
     1    11    10    1
     2    11    12    1
     3    12    13    1
     4    13     1    1
     5     1     2   ar
     6     2     3   ar
     7     3     4   ar
     8     4     5   ar
     9     5    25    1
    10    25    26    3
    11     5     6   ar
    12     6     7   ar
    13     7    27    1
    14    27    28    1
    15    27    29    1
    16    29    30   ar
    17    30    31   ar
    18    31    32   ar
    19    32    33    1
    20    32    34   ar
    21    34    35   ar
    22    35    36    1
    23     7     8   ar
    24     8     9   ar
    25    13    14    2
    26    14    15    1
    27    15    16    1
    28    16    17    1
    29    17    18    1
    30    18    19    1
    31    19    20    1
    32    20    21    1
    33    21    22    1
    34    22    23    1
    35    16    11    1
    36    21    17    1
    37     9     1   ar
    38     8     4   ar
    39    35    29   ar
    40    23    24    1
@<TRIPOS>MOLECULE
*****
 36 40 0 0 0
SMALL
GASTEIGER

@<TRIPOS>ATOM
      1 C          62.6980   89.8732   10.9628 C.ar    1  UNL1        0.0978
      2 C          61.5934   90.7361   10.4288 C.ar    1  UNL1        0.1177
      3 N          60.5912   90.1639    9.4707 N.ar    1  UNL1       -0.2369
      4 C          60.6935   88.7287    9.0466 C.ar    1  UNL1        0.1458
      5 C          59.8580   87.8932    8.1225 C.ar    1  UNL1        0.1892
      6 N          60.4463   86.5138    8.0855 N.ar    1  UNL1       -0.1556
      7 N          61.6453   86.4970    8.9866 N.ar    1  UNL1       -0.2299
      8 C          61.7982   87.8658    9.5805 C.ar    1  UNL1        0.1798
      9 N          62.8004   88.4381   10.5386 N.ar    1  UNL1       -0.2242
     10 C          66.1013   93.5904   12.2278 C.3     1  UNL1        0.0017
     11 C          65.4020   92.3040   12.5535 C.3     1  UNL1        0.0194
     12 C          64.3997   91.7318   11.5953 C.3     1  UNL1        0.0289
     13 C          63.7004   90.4454   11.9209 C.2     1  UNL1       -0.0071
     14 C          64.0033   89.7312   13.2047 C.2     1  UNL1       -0.0275
     15 C          65.0056   90.3033   14.1628 C.3     1  UNL1        0.0417
     16 C          65.7049   91.5898   13.8372 C.3     1  UNL1        0.0621
     17 N          66.7072   92.1619   14.7954 N.3     1  UNL1       -0.2727
     18 C          68.1212   92.5422   14.4695 C.3     1  UNL1        0.0721
     19 C          68.7594   93.0696   15.7204 C.3     1  UNL1        0.0188
     20 C          67.7398   93.0152   16.8193 C.3     1  UNL1        0.0199
     21 C          66.4715   92.4543   16.2476 C.3     1  UNL1        0.0870
     22 C          65.1922   92.2259   16.9966 C.3     1  UNL1        0.1530
     23 O          64.2395   93.3631   17.2184 O.3     1  UNL1       -0.3806
     24 H          64.6519   94.0219   17.7988 H       1  UNL1        0.2105
     25 C          58.6469   88.3557    7.3681 C.1     1  UNL1        0.1232
     26 N          57.4358   88.8184    6.6137 N.1     1  UNL1       -0.1891
     27 C          62.5354   85.3182    9.2478 C.3     1  UNL1        0.1299
     28 C          63.2346   84.6391    8.1077 C.3     1  UNL1        0.0313
     29 C          62.7262   84.8184   10.6492 C.ar    1  UNL1        0.0106
     30 C          62.0221   85.4937   11.7886 C.ar    1  UNL1       -0.0007
     31 C          62.2129   84.9939   13.1900 C.ar    1  UNL1        0.0112
     32 C          63.1077   83.8189   13.4520 C.ar    1  UNL1        0.0585
     33 CL         63.2986   83.3191   14.8533 Cl      1  UNL1       -0.0822
     34 C          63.8117   83.1436   12.3125 C.ar    1  UNL1        0.0225
     35 C          63.6210   83.6434   10.9111 C.ar    1  UNL1        0.0563
     36 CL         64.3250   82.9681    9.7717 Cl      1  UNL1       -0.0825
@<TRIPOS>BOND
     1    11    10    1
     2    11    12    1
     3    12    13    1
     4    13     1    1
     5     1     2   ar
     6     2     3   ar
     7     3     4   ar
     8     4     5   ar
     9     5    25    1
    10    25    26    3
    11     5     6   ar
    12     6     7   ar
    13     7    27    1
    14    27    28    1
    15    27    29    1
    16    29    30   ar
    17    30    31   ar
    18    31    32   ar
    19    32    33    1
    20    32    34   ar
    21    34    35   ar
    22    35    36    1
    23     7     8   ar
    24     8     9   ar
    25    13    14    2
    26    14    15    1
    27    15    16    1
    28    16    17    1
    29    17    18    1
    30    18    19    1
    31    19    20    1
    32    20    21    1
    33    21    22    1
    34    22    23    1
    35    16    11    1
    36    21    17    1
    37     9     1   ar
    38     8     4   ar
    39    35    29   ar
    40    23    24    1
@<TRIPOS>MOLECULE
*****
 36 40 0 0 0
SMALL
GASTEIGER

@<TRIPOS>ATOM
      1 C          61.9374   87.6149   10.9605 C.ar    1  UNL1        0.0978
      2 C          62.0030   86.1188   11.0454 C.ar    1  UNL1        0.1177
      3 N          62.7262   85.4633   12.1844 N.ar    1  UNL1       -0.2369
      4 C          63.3837   86.3038   13.2385 C.ar    1  UNL1        0.1458
      5 C          64.1621   85.9430   14.4689 C.ar    1  UNL1        0.1892
      6 N          64.5776   87.2162   15.1445 N.ar    1  UNL1       -0.1556
      7 N          64.0559   88.3639   14.3315 N.ar    1  UNL1       -0.2299
      8 C          63.3181   87.8000   13.1536 C.ar    1  UNL1        0.1798
      9 N          62.5949   88.4555   12.0146 N.ar    1  UNL1       -0.2242
     10 C          58.9672   87.2543    6.7122 C.3     1  UNL1        0.0017
     11 C          59.7291   88.0903    7.6974 C.3     1  UNL1        0.0194
     12 C          60.4523   87.4346    8.8364 C.3     1  UNL1        0.0289
     13 C          61.2142   88.2706    9.8216 C.2     1  UNL1       -0.0071
     14 C          61.2530   89.7622    9.6678 C.2     1  UNL1       -0.0275
     15 C          60.5299   90.4178    8.5289 C.3     1  UNL1        0.0417
     16 C          59.7679   89.5819    7.5436 C.3     1  UNL1        0.0621
     17 N          59.0448   90.2375    6.4047 N.3     1  UNL1       -0.2727
     18 C          57.5569   90.3052    6.2272 C.3     1  UNL1        0.0721
     19 C          57.2751   91.0501    4.9561 C.3     1  UNL1        0.0188
     20 C          58.5890   91.4428    4.3480 C.3     1  UNL1        0.0199
     21 C          59.6827   90.9405    5.2433 C.3     1  UNL1        0.0870
     22 C          61.1556   91.1114    5.0169 C.3     1  UNL1        0.1530
     23 O          61.6479   91.8500    3.8077 O.3     1  UNL1       -0.3806
     24 H          61.4176   91.3513    3.0082 H       1  UNL1        0.2105
     25 C          64.4709   84.5531   14.9409 C.1     1  UNL1        0.1232
     26 N          64.7796   83.1632   15.4128 N.1     1  UNL1       -0.1891
     27 C          64.2398   89.8198   14.6421 C.3     1  UNL1        0.1299
     28 C          63.8658   90.3515   15.9938 C.3     1  UNL1        0.0313
     29 C          64.7978   90.7441   13.6008 C.ar    1  UNL1        0.0106
     30 C          64.0141   91.0298   12.3541 C.ar    1  UNL1       -0.0007
     31 C          64.5721   91.9541   11.3127 C.ar    1  UNL1        0.0112
     32 C          65.9137   92.5928   11.5181 C.ar    1  UNL1        0.0585
     33 CL         66.4717   93.5171   10.4769 Cl      1  UNL1       -0.0822
     34 C          66.6973   92.3071   12.7648 C.ar    1  UNL1        0.0225
     35 C          66.1394   91.3828   13.8061 C.ar    1  UNL1        0.0563
     36 CL         66.9230   91.0971   15.0528 Cl      1  UNL1       -0.0825
@<TRIPOS>BOND
     1    11    10    1
     2    11    12    1
     3    12    13    1
     4    13     1    1
     5     1     2   ar
     6     2     3   ar
     7     3     4   ar
     8     4     5   ar
     9     5    25    1
    10    25    26    3
    11     5     6   ar
    12     6     7   ar
    13     7    27    1
    14    27    28    1
    15    27    29    1
    16    29    30   ar
    17    30    31   ar
    18    31    32   ar
    19    32    33    1
    20    32    34   ar
    21    34    35   ar
    22    35    36    1
    23     7     8   ar
    24     8     9   ar
    25    13    14    2
    26    14    15    1
    27    15    16    1
    28    16    17    1
    29    17    18    1
    30    18    19    1
    31    19    20    1
    32    20    21    1
    33    21    22    1
    34    22    23    1
    35    16    11    1
    36    21    17    1
    37     9     1   ar
    38     8     4   ar
    39    35    29   ar
    40    23    24    1
@<TRIPOS>MOLECULE
*****
 36 40 0 0 0
SMALL
GASTEIGER

@<TRIPOS>ATOM
      1 C          62.3900   89.9902   10.7309 C.ar    1  UNL1        0.0978
      2 C          61.2552   90.8742   10.3057 C.ar    1  UNL1        0.1177
      3 N          60.2401   90.3709    9.3228 N.ar    1  UNL1       -0.2369
      4 C          60.3599   88.9837    8.7649 C.ar    1  UNL1        0.1458
      5 C          59.5175   88.2188    7.7874 C.ar    1  UNL1        0.1892
      6 N          60.1317   86.8621    7.6085 N.ar    1  UNL1       -0.1556
      7 N          61.3536   86.7885    8.4754 N.ar    1  UNL1       -0.2299
      8 C          61.4946   88.0997    9.1901 C.ar    1  UNL1        0.1798
      9 N          62.5097   88.6029   10.1730 N.ar    1  UNL1       -0.2242
     10 C          64.7839   89.5985   15.3261 C.3     1  UNL1        0.0017
     11 C          64.6021   90.2976   14.0115 C.3     1  UNL1        0.0194
     12 C          63.5870   89.7944   13.0285 C.3     1  UNL1        0.0289
     13 C          63.4052   90.4935   11.7139 C.2     1  UNL1       -0.0071
     14 C          64.2385   91.6958   11.3823 C.2     1  UNL1       -0.0275
     15 C          65.2536   92.1991   12.3652 C.3     1  UNL1        0.0417
     16 C          65.4354   91.5000   13.6799 C.3     1  UNL1        0.0621
     17 N          66.4505   92.0032   14.6628 N.3     1  UNL1       -0.2727
     18 C          66.1801   92.4023   16.0833 C.3     1  UNL1        0.0721
     19 C          67.4767   92.8415   16.6963 C.3     1  UNL1        0.0188
     20 C          68.5486   92.7138   15.6547 C.3     1  UNL1        0.0199
     21 C          67.9143   92.1958   14.3980 C.3     1  UNL1        0.0870
     22 C          68.6200   91.9188   13.1036 C.3     1  UNL1        0.1530
     23 O          70.1074   91.7249   13.0868 O.3     1  UNL1       -0.3806
     24 H          70.5444   92.5543   13.3357 H       1  UNL1        0.2105
     25 C          58.2784   88.7222    7.1082 C.1     1  UNL1        0.1232
     26 N          57.0395   89.2258    6.4290 N.1     1  UNL1       -0.1891
     27 C          62.2731   85.6105    8.6048 C.3     1  UNL1        0.1299
     28 C          62.8164   84.9443    7.3755 C.3     1  UNL1        0.0313
     29 C          62.6495   85.0985    9.9636 C.ar    1  UNL1        0.0106
     30 C          63.7971   84.1444   10.1142 C.ar    1  UNL1       -0.0007
     31 C          64.1734   83.6325   11.4730 C.ar    1  UNL1        0.0112
     32 C          63.4022   84.0747   12.6812 C.ar    1  UNL1        0.0585
     33 CL         63.7785   83.5628   14.0400 Cl      1  UNL1       -0.0822
     34 C          62.2547   85.0288   12.5305 C.ar    1  UNL1        0.0225
     35 C          61.8783   85.5408   11.1718 C.ar    1  UNL1        0.0563
     36 CL         60.7307   86.4949   11.0211 Cl      1  UNL1       -0.0825
@<TRIPOS>BOND
     1    11    10    1
     2    11    12    1
     3    12    13    1
     4    13     1    1
     5     1     2   ar
     6     2     3   ar
     7     3     4   ar
     8     4     5   ar
     9     5    25    1
    10    25    26    3
    11     5     6   ar
    12     6     7   ar
    13     7    27    1
    14    27    28    1
    15    27    29    1
    16    29    30   ar
    17    30    31   ar
    18    31    32   ar
    19    32    33    1
    20    32    34   ar
    21    34    35   ar
    22    35    36    1
    23     7     8   ar
    24     8     9   ar
    25    13    14    2
    26    14    15    1
    27    15    16    1
    28    16    17    1
    29    17    18    1
    30    18    19    1
    31    19    20    1
    32    20    21    1
    33    21    22    1
    34    22    23    1
    35    16    11    1
    36    21    17    1
    37     9     1   ar
    38     8     4   ar
    39    35    29   ar
    40    23    24    1
@<TRIPOS>MOLECULE
*****
 36 40 0 0 0
SMALL
GASTEIGER

@<TRIPOS>ATOM
      1 C          62.9552   94.6580   -2.3554 C.ar    1  UNL1        0.0978
      2 C          64.4362   94.7665   -2.5668 C.ar    1  UNL1        0.1177
      3 N          64.9717   95.3060   -3.8600 N.ar    1  UNL1       -0.2369
      4 C          64.0261   95.7369   -4.9417 C.ar    1  UNL1        0.1458
      5 C          64.2586   96.3033   -6.3111 C.ar    1  UNL1        0.1892
      6 N          62.9212   96.5448   -6.9460 N.ar    1  UNL1       -0.1556
      7 N          61.8622   96.1277   -5.9690 N.ar    1  UNL1       -0.2299
      8 C          62.5450   95.6284   -4.7303 C.ar    1  UNL1        0.1798
      9 N          62.0096   95.0889   -3.4372 N.ar    1  UNL1       -0.2242
     10 C          59.3905   91.9113    0.2425 C.3     1  UNL1        0.0017
     11 C          60.6374   92.7451    0.2367 C.3     1  UNL1        0.0194
     12 C          61.1729   93.2846   -1.0565 C.3     1  UNL1        0.0289
     13 C          62.4197   94.1185   -1.0623 C.2     1  UNL1       -0.0071
     14 C          63.1311   94.4128    0.2251 C.2     1  UNL1       -0.0275
     15 C          62.5957   93.8734    1.5182 C.3     1  UNL1        0.0417
     16 C          61.3488   93.0395    1.5241 C.3     1  UNL1        0.0621
     17 N          60.8133   92.5001    2.8172 N.3     1  UNL1       -0.2727
     18 C          59.5085   92.8739    3.4556 C.3     1  UNL1        0.0721
     19 C          59.3774   92.0970    4.7320 C.3     1  UNL1        0.0188
     20 C          60.6013   91.2429    4.8824 C.3     1  UNL1        0.0199
     21 C          61.4887   91.4920    3.6990 C.3     1  UNL1        0.0870
     22 C          62.8182   90.8464    3.4425 C.3     1  UNL1        0.1530
     23 O          64.0429   91.6948    3.2680 O.3     1  UNL1       -0.3806
     24 H          63.9589   92.2209    2.4574 H       1  UNL1        0.2105
     25 C          65.5940   96.5797   -6.9359 C.1     1  UNL1        0.1232
     26 N          66.9294   96.8559   -7.5606 N.1     1  UNL1       -0.1891
     27 C          60.3805   96.1976   -6.1916 C.3     1  UNL1        0.1299
     28 C          59.8376   96.8547   -7.4259 C.3     1  UNL1        0.0313
     29 C          59.4415   95.6103   -5.1799 C.ar    1  UNL1        0.0106
     30 C          59.1279   96.3640   -3.9215 C.ar    1  UNL1       -0.0007
     31 C          58.1890   95.7767   -2.9098 C.ar    1  UNL1        0.0112
     32 C          57.5636   94.4358   -3.1565 C.ar    1  UNL1        0.0585
     33 CL         56.6246   93.8485   -2.1449 Cl      1  UNL1       -0.0822
     34 C          57.8772   93.6822   -4.4150 C.ar    1  UNL1        0.0225
     35 C          58.8162   94.2694   -5.4267 C.ar    1  UNL1        0.0563
     36 CL         59.1298   93.5158   -6.6851 Cl      1  UNL1       -0.0825
@<TRIPOS>BOND
     1    11    10    1
     2    11    12    1
     3    12    13    1
     4    13     1    1
     5     1     2   ar
     6     2     3   ar
     7     3     4   ar
     8     4     5   ar
     9     5    25    1
    10    25    26    3
    11     5     6   ar
    12     6     7   ar
    13     7    27    1
    14    27    28    1
    15    27    29    1
    16    29    30   ar
    17    30    31   ar
    18    31    32   ar
    19    32    33    1
    20    32    34   ar
    21    34    35   ar
    22    35    36    1
    23     7     8   ar
    24     8     9   ar
    25    13    14    2
    26    14    15    1
    27    15    16    1
    28    16    17    1
    29    17    18    1
    30    18    19    1
    31    19    20    1
    32    20    21    1
    33    21    22    1
    34    22    23    1
    35    16    11    1
    36    21    17    1
    37     9     1   ar
    38     8     4   ar
    39    35    29   ar
    40    23    24    1
@<TRIPOS>MOLECULE
*****
 36 40 0 0 0
SMALL
GASTEIGER

@<TRIPOS>ATOM
      1 C          61.5684   93.9836   -0.5515 C.ar    1  UNL1        0.0978
      2 C          63.0232   94.2174   -0.8322 C.ar    1  UNL1        0.1177
      3 N          63.4426   94.8907   -2.1053 N.ar    1  UNL1       -0.2369
      4 C          62.4071   95.3303   -3.0976 C.ar    1  UNL1        0.1458
      5 C          62.5185   96.0136   -4.4283 C.ar    1  UNL1        0.1892
      6 N          61.1324   96.2021   -4.9699 N.ar    1  UNL1       -0.1556
      7 N          60.1645   95.6353   -3.9740 N.ar    1  UNL1       -0.2299
      8 C          60.9523   95.0965   -2.8168 C.ar    1  UNL1        0.1798
      9 N          60.5330   94.4231   -1.5438 N.ar    1  UNL1       -0.2242
     10 C          62.7602   91.1986    3.6703 C.3     1  UNL1        0.0017
     11 C          61.7449   91.9177    2.8326 C.3     1  UNL1        0.0194
     12 C          62.1643   92.5911    1.5594 C.3     1  UNL1        0.0289
     13 C          61.1490   93.3102    0.7216 C.2     1  UNL1       -0.0071
     14 C          59.7143   93.3561    1.1569 C.2     1  UNL1       -0.0275
     15 C          59.2948   92.6828    2.4299 C.3     1  UNL1        0.0417
     16 C          60.3102   91.9636    3.2678 C.3     1  UNL1        0.0621
     17 N          59.8907   91.2902    4.5408 N.3     1  UNL1       -0.2727
     18 C          60.7799   90.5004    5.4549 C.3     1  UNL1        0.0721
     19 C          59.9472   90.0106    6.6024 C.3     1  UNL1        0.0188
     20 C          58.5433   90.4976    6.3974 C.3     1  UNL1        0.0199
     21 C          58.5084   91.2885    5.1233 C.3     1  UNL1        0.0870
     22 C          57.3029   91.9598    4.5350 C.3     1  UNL1        0.1530
     23 O          55.9366   91.3862    4.7678 O.3     1  UNL1       -0.3806
     24 H          55.8701   90.5222    4.3319 H       1  UNL1        0.2105
     25 C          63.7922   96.4345   -5.0995 C.1     1  UNL1        0.1232
     26 N          65.0659   96.8554   -5.7706 N.1     1  UNL1       -0.1891
     27 C          58.6710   95.6115   -4.1111 C.3     1  UNL1        0.1299
     28 C          57.9351   96.8541   -4.5163 C.3     1  UNL1        0.0313
     29 C          57.9133   94.3450   -3.8430 C.ar    1  UNL1        0.0106
     30 C          57.9278   93.2346   -4.8514 C.ar    1  UNL1       -0.0007
     31 C          57.1701   91.9681   -4.5834 C.ar    1  UNL1        0.0112
     32 C          56.3980   91.8119   -3.3069 C.ar    1  UNL1        0.0585
     33 CL         55.6403   90.5454   -3.0388 Cl      1  UNL1       -0.0822
     34 C          56.3835   92.9223   -2.2985 C.ar    1  UNL1        0.0225
     35 C          57.1412   94.1888   -2.5666 C.ar    1  UNL1        0.0563
     36 CL         57.1268   95.2991   -1.5581 Cl      1  UNL1       -0.0825
@<TRIPOS>BOND
     1    11    10    1
     2    11    12    1
     3    12    13    1
     4    13     1    1
     5     1     2   ar
     6     2     3   ar
     7     3     4   ar
     8     4     5   ar
     9     5    25    1
    10    25    26    3
    11     5     6   ar
    12     6     7   ar
    13     7    27    1
    14    27    28    1
    15    27    29    1
    16    29    30   ar
    17    30    31   ar
    18    31    32   ar
    19    32    33    1
    20    32    34   ar
    21    34    35   ar
    22    35    36    1
    23     7     8   ar
    24     8     9   ar
    25    13    14    2
    26    14    15    1
    27    15    16    1
    28    16    17    1
    29    17    18    1
    30    18    19    1
    31    19    20    1
    32    20    21    1
    33    21    22    1
    34    22    23    1
    35    16    11    1
    36    21    17    1
    37     9     1   ar
    38     8     4   ar
    39    35    29   ar
    40    23    24    1
