@<TRIPOS>MOLECULE
*****
 16 18 0 0 0
SMALL
GASTEIGER

@<TRIPOS>ATOM
      1 C          61.2731   86.4873    8.9183 C.2     1  UNL1        0.1223
      2 C          62.2729   85.6070    8.2289 C.2     1  UNL1        0.0343
      3 C          63.1670   84.7126    9.0356 C.2     1  UNL1        0.0232
      4 C          63.0613   84.6987   10.5317 C.2     1  UNL1        0.0975
      5 N          63.8031   83.9279   11.5832 N.2     1  UNL1       -0.2200
      6 C          63.2619   84.3319   12.9226 C.2     1  UNL1        0.1898
      7 N          62.1855   85.3524   12.6989 N.2     1  UNL1       -0.2236
      8 C          62.0616   85.5790   11.2212 C.2     1  UNL1        0.0863
      9 C          61.1675   86.4734   10.4145 C.3     1  UNL1        0.1112
     10 C          59.0193   86.9047    7.6954 C.3     1  UNL1        0.2520
     11 O          60.3791   87.3817    8.1116 O.2     1  UNL1       -0.4753
     12 S          63.7171   83.8075   14.2522 S.3     1  UNL1       -0.0757
     13 C          62.8508   82.8519   15.0180 C.3     1  UNL1        0.0651
     14 C          62.1638   81.7256   14.3044 C.3     1  UNL1        0.0112
     15 C          60.9366   80.8977   14.0621 C.3     1  UNL1        0.0009
     16 C          62.2009   80.6024   13.3109 C.3     1  UNL1        0.0009
@<TRIPOS>BOND
     1    10    11    1
     2    11     1    1
     3     1     2    2
     4     2     3    1
     5     3     4    2
     6     4     5    1
     7     5     6    2
     8     6    12    1
     9    12    13    1
    10    13    14    1
    11    14    15    1
    12    15    16    1
    13     6     7    1
    14     7     8    2
    15     8     9    1
    16     9     1    1
    17     8     4    1
    18    16    14    1
@<TRIPOS>MOLECULE
*****
 16 18 0 0 0
SMALL
GASTEIGER

@<TRIPOS>ATOM
      1 C          63.9057   90.1071   15.0561 C.2     1  UNL1        0.1223
      2 C          63.3233   89.9564   16.4302 C.2     1  UNL1        0.0343
      3 C          63.0812   88.5886   16.9963 C.2     1  UNL1        0.0232
      4 C          63.4214   87.3715   16.1884 C.2     1  UNL1        0.0975
      5 N          63.2953   85.9056   16.4802 N.2     1  UNL1       -0.2200
      6 C          63.7998   85.1502   15.2864 C.2     1  UNL1        0.1898
      7 N          64.2377   86.1493   14.2569 N.2     1  UNL1       -0.2236
      8 C          64.0038   87.5222   14.8143 C.2     1  UNL1        0.0863
      9 C          64.2460   88.8900   14.2482 C.3     1  UNL1        0.1112
     10 C          64.9195   91.6324   13.2134 C.3     1  UNL1        0.2520
     11 O          64.1479   91.4749   14.4900 O.2     1  UNL1       -0.4753
     12 S          63.8565   83.6577   15.1468 S.3     1  UNL1       -0.0757
     13 C          63.5577   83.0163   13.8242 C.3     1  UNL1        0.0651
     14 C          62.6283   81.8411   13.7535 C.3     1  UNL1        0.0112
     15 C          62.3029   80.4716   13.2353 C.3     1  UNL1        0.0009
     16 C          61.3439   81.1750   14.1493 C.3     1  UNL1        0.0009
@<TRIPOS>BOND
     1    10    11    1
     2    11     1    1
     3     1     2    2
     4     2     3    1
     5     3     4    2
     6     4     5    1
     7     5     6    2
     8     6    12    1
     9    12    13    1
    10    13    14    1
    11    14    15    1
    12    15    16    1
    13     6     7    1
    14     7     8    2
    15     8     9    1
    16     9     1    1
    17     8     4    1
    18    16    14    1
@<TRIPOS>MOLECULE
*****
 16 18 0 0 0
SMALL
GASTEIGER

@<TRIPOS>ATOM
      1 C          63.8030   83.2043   11.8905 C.2     1  UNL1        0.1223
      2 C          64.1790   83.1362   10.4400 C.2     1  UNL1        0.0343
      3 C          63.5972   84.1189    9.4675 C.2     1  UNL1        0.0232
      4 C          62.6395   85.1697    9.9454 C.2     1  UNL1        0.0975
      5 N          61.9104   86.2653    9.2256 N.2     1  UNL1       -0.2200
      6 C          61.0837   87.0105   10.2313 C.2     1  UNL1        0.1898
      7 N          61.3019   86.3755   11.5726 N.2     1  UNL1       -0.2236
      8 C          62.2635   85.2378   11.3959 C.2     1  UNL1        0.0863
      9 C          62.8452   84.2551   12.3684 C.3     1  UNL1        0.1112
     10 C          63.5437   81.0938   13.3833 C.3     1  UNL1        0.2520
     11 O          64.3847   82.2215   12.8630 O.2     1  UNL1       -0.4753
     12 S          60.1949   88.1846    9.9457 S.3     1  UNL1       -0.0757
     13 C          60.7900   89.4795    9.4777 C.3     1  UNL1        0.0651
     14 C          61.9773   90.0593   10.1879 C.3     1  UNL1        0.0112
     15 C          63.0759   91.0777   10.2635 C.3     1  UNL1        0.0009
     16 C          62.9350   90.0450   11.3422 C.3     1  UNL1        0.0009
@<TRIPOS>BOND
     1    10    11    1
     2    11     1    1
     3     1     2    2
     4     2     3    1
     5     3     4    2
     6     4     5    1
     7     5     6    2
     8     6    12    1
     9    12    13    1
    10    13    14    1
    11    14    15    1
    12    15    16    1
    13     6     7    1
    14     7     8    2
    15     8     9    1
    16     9     1    1
    17     8     4    1
    18    16    14    1
@<TRIPOS>MOLECULE
*****
 16 18 0 0 0
SMALL
GASTEIGER

@<TRIPOS>ATOM
      1 C          63.4275   82.4873   13.8422 C.2     1  UNL1        0.1223
      2 C          64.1057   83.4794   14.7398 C.2     1  UNL1        0.0343
      3 C          64.0644   84.9417   14.4081 C.2     1  UNL1        0.0232
      4 C          63.3449   85.4119   13.1788 C.2     1  UNL1        0.0975
      5 N          63.1367   86.7796   12.5990 N.2     1  UNL1       -0.2200
      6 C          62.3297   86.6327   11.3431 C.2     1  UNL1        0.1898
      7 N          62.0392   85.1743   11.1466 N.2     1  UNL1       -0.2236
      8 C          62.6666   84.4198   12.2812 C.2     1  UNL1        0.0863
      9 C          62.7079   82.9575   12.6129 C.3     1  UNL1        0.1112
     10 C          62.4974   80.0818   13.5284 C.3     1  UNL1        0.2520
     11 O          63.4688   81.0251   14.1739 O.2     1  UNL1       -0.4753
     12 S          61.8905   87.7485   10.4418 S.3     1  UNL1       -0.0757
     13 C          60.4635   87.8270    9.9863 C.3     1  UNL1        0.0651
     14 C          60.0204   87.0641    8.7732 C.3     1  UNL1        0.0112
     15 C          58.9961   86.7934    7.7113 C.3     1  UNL1        0.0009
     16 C          60.2771   86.0133    7.7340 C.3     1  UNL1        0.0009
@<TRIPOS>BOND
     1    10    11    1
     2    11     1    1
     3     1     2    2
     4     2     3    1
     5     3     4    2
     6     4     5    1
     7     5     6    2
     8     6    12    1
     9    12    13    1
    10    13    14    1
    11    14    15    1
    12    15    16    1
    13     6     7    1
    14     7     8    2
    15     8     9    1
    16     9     1    1
    17     8     4    1
    18    16    14    1
@<TRIPOS>MOLECULE
*****
 16 18 0 0 0
SMALL
GASTEIGER

@<TRIPOS>ATOM
      1 C          65.7506   92.5912   12.1306 C.2     1  UNL1        0.1223
      2 C          65.6583   91.9212   13.4695 C.2     1  UNL1        0.0343
      3 C          64.5881   90.9018   13.7258 C.2     1  UNL1        0.0232
      4 C          63.6104   90.5525   12.6433 C.2     1  UNL1        0.0975
      5 N          62.4573   89.5939   12.6033 N.2     1  UNL1       -0.2200
      6 C          61.8370   89.6714   11.2398 C.2     1  UNL1        0.1898
      7 N          62.6067   90.6780   10.4370 N.2     1  UNL1       -0.2236
      8 C          63.7027   91.2225   11.3045 C.2     1  UNL1        0.0863
      9 C          64.7728   92.2419   11.0481 C.3     1  UNL1        0.1112
     10 C          66.5310   94.8006   11.0084 C.3     1  UNL1        0.2520
     11 O          66.8207   93.6106   11.8743 O.2     1  UNL1       -0.4753
     12 S          60.6546   88.8812   10.7628 S.3     1  UNL1       -0.0757
     13 C          60.2630   88.9172    9.3152 C.3     1  UNL1        0.0651
     14 C          59.9609   87.6407    8.5880 C.3     1  UNL1        0.0112
     15 C          59.0749   86.8423    7.6782 C.3     1  UNL1        0.0009
     16 C          60.3236   86.2279    8.2380 C.3     1  UNL1        0.0009
@<TRIPOS>BOND
     1    10    11    1
     2    11     1    1
     3     1     2    2
     4     2     3    1
     5     3     4    2
     6     4     5    1
     7     5     6    2
     8     6    12    1
     9    12    13    1
    10    13    14    1
    11    14    15    1
    12    15    16    1
    13     6     7    1
    14     7     8    2
    15     8     9    1
    16     9     1    1
    17     8     4    1
    18    16    14    1
@<TRIPOS>MOLECULE
*****
 16 18 0 0 0
SMALL
GASTEIGER

@<TRIPOS>ATOM
      1 C          64.9730   91.5511   13.8568 C.2     1  UNL1        0.1223
      2 C          64.9337   90.2550   14.6108 C.2     1  UNL1        0.0343
      3 C          64.1708   89.0881   14.0572 C.2     1  UNL1        0.0232
      4 C          63.4474   89.2173   12.7496 C.2     1  UNL1        0.0975
      5 N          62.6191   88.2471   11.9605 N.2     1  UNL1       -0.2200
      6 C          62.1466   88.9435   10.7189 C.2     1  UNL1        0.1898
      7 N          62.6828   90.3442   10.7405 N.2     1  UNL1       -0.2236
      8 C          63.4868   90.5134   11.9955 C.2     1  UNL1        0.0863
      9 C          64.2496   91.6803   12.5492 C.3     1  UNL1        0.1112
     10 C          67.1278   92.5235   14.9345 C.3     1  UNL1        0.2520
     11 O          65.7359   92.7180   14.4104 O.2     1  UNL1       -0.4753
     12 S          61.2885   88.3444    9.6442 S.3     1  UNL1       -0.0757
     13 C          61.0437   86.8647    9.6178 C.3     1  UNL1        0.0651
     14 C          61.8163   85.9934    8.6725 C.3     1  UNL1        0.0112
     15 C          61.9035   85.2360    7.3807 C.3     1  UNL1        0.0009
     16 C          63.0675   85.2417    8.3268 C.3     1  UNL1        0.0009
@<TRIPOS>BOND
     1    10    11    1
     2    11     1    1
     3     1     2    2
     4     2     3    1
     5     3     4    2
     6     4     5    1
     7     5     6    2
     8     6    12    1
     9    12    13    1
    10    13    14    1
    11    14    15    1
    12    15    16    1
    13     6     7    1
    14     7     8    2
    15     8     9    1
    16     9     1    1
    17     8     4    1
    18    16    14    1
@<TRIPOS>MOLECULE
*****
 16 18 0 0 0
SMALL
GASTEIGER

@<TRIPOS>ATOM
      1 C          65.9686   92.0423   13.4343 C.2     1  UNL1        0.1223
      2 C          65.6948   91.0399   14.5161 C.2     1  UNL1        0.0343
      3 C          64.5229   90.1110   14.3986 C.2     1  UNL1        0.0232
      4 C          63.6248   90.1845   13.1995 C.2     1  UNL1        0.0975
      5 N          62.4036   89.4050   12.8108 N.2     1  UNL1       -0.2200
      6 C          61.9227   89.9257   11.4888 C.2     1  UNL1        0.1898
      7 N          62.8467   91.0269   11.0604 N.2     1  UNL1       -0.2236
      8 C          63.8987   91.1868   12.1177 C.2     1  UNL1        0.0863
      9 C          65.0706   92.1157   12.2352 C.3     1  UNL1        0.1112
     10 C          67.5867   93.4487   14.9018 C.3     1  UNL1        0.2520
     11 O          67.1405   92.9712   13.5517 O.2     1  UNL1       -0.4753
     12 S          60.7276   89.4318   10.7286 S.3     1  UNL1       -0.0757
     13 C          60.2420   88.0262   10.9254 C.3     1  UNL1        0.0651
     14 C          61.1332   86.8698   10.5815 C.3     1  UNL1        0.0112
     15 C          61.8274   85.6013   10.9803 C.3     1  UNL1        0.0009
     16 C          61.9828   86.1352    9.5872 C.3     1  UNL1        0.0009
@<TRIPOS>BOND
     1    10    11    1
     2    11     1    1
     3     1     2    2
     4     2     3    1
     5     3     4    2
     6     4     5    1
     7     5     6    2
     8     6    12    1
     9    12    13    1
    10    13    14    1
    11    14    15    1
    12    15    16    1
    13     6     7    1
    14     7     8    2
    15     8     9    1
    16     9     1    1
    17     8     4    1
    18    16    14    1
@<TRIPOS>MOLECULE
*****
 16 18 0 0 0
SMALL
GASTEIGER

@<TRIPOS>ATOM
      1 C          63.3599   82.1409   11.9477 C.2     1  UNL1        0.1223
      2 C          63.9387   82.2275   10.5665 C.2     1  UNL1        0.0343
      3 C          63.7891   83.4887    9.7684 C.2     1  UNL1        0.0232
      4 C          63.0608   84.6633   10.3514 C.2     1  UNL1        0.0975
      5 N          62.7576   86.0275    9.8065 N.2     1  UNL1       -0.2200
      6 C          61.9915   86.7841   10.8509 C.2     1  UNL1        0.1898
      7 N          61.8212   85.8874   12.0412 N.2     1  UNL1       -0.2236
      8 C          62.4821   84.5766   11.7325 C.2     1  UNL1        0.0863
      9 C          62.6316   83.3154   12.5306 C.3     1  UNL1        0.1112
     10 C          62.5805   80.6017   13.8902 C.3     1  UNL1        0.2520
     11 O          63.5095   80.8797   12.7458 O.2     1  UNL1       -0.4753
     12 S          61.4847   88.1904   10.7267 S.3     1  UNL1       -0.0757
     13 C          60.1500   88.4535   10.0947 C.3     1  UNL1        0.0651
     14 C          59.7504   87.7158    8.8513 C.3     1  UNL1        0.0112
     15 C          59.0742   87.6972    7.5125 C.3     1  UNL1        0.0009
     16 C          59.7344   86.4565    8.0365 C.3     1  UNL1        0.0009
@<TRIPOS>BOND
     1    10    11    1
     2    11     1    1
     3     1     2    2
     4     2     3    1
     5     3     4    2
     6     4     5    1
     7     5     6    2
     8     6    12    1
     9    12    13    1
    10    13    14    1
    11    14    15    1
    12    15    16    1
    13     6     7    1
    14     7     8    2
    15     8     9    1
    16     9     1    1
    17     8     4    1
    18    16    14    1
@<TRIPOS>MOLECULE
*****
 16 18 0 0 0
SMALL
GASTEIGER

@<TRIPOS>ATOM
      1 C          63.4542   82.4993   13.2625 C.2     1  UNL1        0.1223
      2 C          64.1136   83.4636   14.2033 C.2     1  UNL1        0.0343
      3 C          64.0019   84.9402   13.9640 C.2     1  UNL1        0.0232
      4 C          63.2307   85.4524   12.7838 C.2     1  UNL1        0.0975
      5 N          62.9497   86.8425   12.2951 N.2     1  UNL1       -0.2200
      6 C          62.1165   86.7373   11.0522 C.2     1  UNL1        0.1898
      7 N          61.8826   85.2822   10.7728 N.2     1  UNL1       -0.2236
      8 C          62.5713   84.4882   11.8430 C.2     1  UNL1        0.0863
      9 C          62.6830   83.0116   12.0823 C.3     1  UNL1        0.1112
     10 C          62.3755   80.1359   13.2863 C.3     1  UNL1        0.2520
     11 O          63.5659   81.0227   13.5018 O.2     1  UNL1       -0.4753
     12 S          61.6068   87.8856   10.2327 S.3     1  UNL1       -0.0757
     13 C          61.3644   89.2180   10.8776 C.3     1  UNL1        0.0651
     14 C          62.4488   90.2542   10.8887 C.3     1  UNL1        0.0112
     15 C          63.2155   91.3397   10.1930 C.3     1  UNL1        0.0009
     16 C          63.5604   90.9637   11.6035 C.3     1  UNL1        0.0009
@<TRIPOS>BOND
     1    10    11    1
     2    11     1    1
     3     1     2    2
     4     2     3    1
     5     3     4    2
     6     4     5    1
     7     5     6    2
     8     6    12    1
     9    12    13    1
    10    13    14    1
    11    14    15    1
    12    15    16    1
    13     6     7    1
    14     7     8    2
    15     8     9    1
    16     9     1    1
    17     8     4    1
    18    16    14    1
