@<TRIPOS>MOLECULE
*****
 26 28 0 0 0
SMALL
GASTEIGER

@<TRIPOS>ATOM
      1 N          64.7370   91.8272   12.1539 N.ar    1  UNL1       -0.2626
      2 C          65.2076   91.1220   13.3914 C.ar    1  UNL1        0.2038
      3 N          64.6022   89.8059   13.7807 N.ar    1  UNL1       -0.2109
      4 C          63.5263   89.1951   12.9325 C.ar    1  UNL1        0.1362
      5 C          63.0557   89.9003   11.6951 C.ar    1  UNL1        0.2150
      6 F          61.9798   89.2894   10.8470 F       1  UNL1       -0.1975
      7 C          63.6611   91.2163   11.3058 C.ar    1  UNL1        0.2923
      8 O          63.1905   91.9216   10.0683 O.2     1  UNL1       -0.2644
      9 N          66.2835   91.7328   14.2395 N.pl3   1  UNL1       -0.2781
     10 C          65.9405   92.3261   15.5738 C.3     1  UNL1        0.0937
     11 C          67.0164   92.9369   16.4219 C.3     1  UNL1        0.0229
     12 C          68.4353   92.9545   15.9357 C.3     1  UNL1        0.0190
     13 C          68.7783   92.3612   14.6013 C.3     1  UNL1        0.0710
     14 N          70.1972   92.3788   14.1151 N.3     1  UNL1       -0.3208
     15 C          67.7023   91.7504   13.7533 C.3     1  UNL1        0.1089
     16 H          70.2475   91.9370   13.1971 H       1  UNL1        0.1189
     17 H          70.7878   91.8677   14.7712 H       1  UNL1        0.1189
     18 C          65.3423   93.1432   11.7646 C.3     1  UNL1        0.1392
     19 C          66.5825   94.4549    9.8960 C.ar    1  UNL1        0.0663
     20 C          67.6311   94.5105    8.8248 C.ar    1  UNL1        0.0100
     21 C          68.4879   93.3102    8.5510 C.ar    1  UNL1        0.0007
     22 C          68.2963   92.0542    9.3484 C.ar    1  UNL1       -0.0002
     23 C          67.2478   91.9986   10.4196 C.ar    1  UNL1       -0.0017
     24 C          66.3908   93.1989   10.6934 C.ar    1  UNL1        0.0102
     25 N          64.8687   96.8555   10.4437 N.1     1  UNL1       -0.1908
     26 C          65.7256   95.6552   10.1698 C.1     1  UNL1        0.1002
@<TRIPOS>BOND
     1    25    26    3
     2    26    19    1
     3    19    20   ar
     4    20    21   ar
     5    21    22   ar
     6    22    23   ar
     7    23    24   ar
     8    24    18    1
     9    18     1    1
    10     1     2   ar
    11     2     9    1
    12     9    10    1
    13    10    11    1
    14    11    12    1
    15    12    13    1
    16    13    14    1
    17    13    15    1
    18     2     3   ar
    19     3     4   ar
    20     4     5   ar
    21     5     6    1
    22     5     7   ar
    23     7     8    2
    24    24    19   ar
    25     7     1   ar
    26    15     9    1
    27    14    16    1
    28    14    17    1
@<TRIPOS>MOLECULE
*****
 26 28 0 0 0
SMALL
GASTEIGER

@<TRIPOS>ATOM
      1 N          63.8678   88.9666   13.2001 N.ar    1  UNL1       -0.2626
      2 C          64.0094   90.4597   13.1699 C.ar    1  UNL1        0.2038
      3 N          63.2347   91.2664   12.1704 N.ar    1  UNL1       -0.2109
      4 C          62.3184   90.5801   11.2011 C.ar    1  UNL1        0.1362
      5 C          62.1769   89.0871   11.2313 C.ar    1  UNL1        0.2150
      6 F          61.2606   88.4008   10.2620 F       1  UNL1       -0.1975
      7 C          62.9516   88.2804   12.2308 C.ar    1  UNL1        0.2923
      8 O          62.8100   86.7873   12.2611 O.2     1  UNL1       -0.2644
      9 N          64.9256   91.1460   14.1392 N.pl3   1  UNL1       -0.2781
     10 C          64.4089   91.5856   15.4770 C.3     1  UNL1        0.0937
     11 C          65.3251   92.2719   16.4463 C.3     1  UNL1        0.0229
     12 C          66.7581   92.5185   16.0778 C.3     1  UNL1        0.0190
     13 C          67.2748   92.0788   14.7400 C.3     1  UNL1        0.0710
     14 N          68.7078   92.3254   14.3715 N.3     1  UNL1       -0.3208
     15 C          66.3585   91.3925   13.7707 C.3     1  UNL1        0.1089
     16 H          68.8847   91.9645   13.4340 H       1  UNL1        0.1189
     17 H          69.3168   91.8517   15.0387 H       1  UNL1        0.1189
     18 C          64.6425   88.1599   14.1996 C.3     1  UNL1        0.1392
     19 C          63.8459   86.1375   15.6227 C.ar    1  UNL1        0.0663
     20 C          63.1610   85.5970   16.8429 C.ar    1  UNL1        0.0100
     21 C          62.5879   86.5386   17.8602 C.ar    1  UNL1        0.0007
     22 C          62.6996   88.0206   17.6573 C.ar    1  UNL1       -0.0002
     23 C          63.3845   88.5611   16.4372 C.ar    1  UNL1       -0.0017
     24 C          63.9577   87.6195   15.4198 C.ar    1  UNL1        0.0102
     25 N          64.9922   84.2543   13.5880 N.1     1  UNL1       -0.1908
     26 C          64.4191   85.1959   14.6054 C.1     1  UNL1        0.1002
@<TRIPOS>BOND
     1    25    26    3
     2    26    19    1
     3    19    20   ar
     4    20    21   ar
     5    21    22   ar
     6    22    23   ar
     7    23    24   ar
     8    24    18    1
     9    18     1    1
    10     1     2   ar
    11     2     9    1
    12     9    10    1
    13    10    11    1
    14    11    12    1
    15    12    13    1
    16    13    14    1
    17    13    15    1
    18     2     3   ar
    19     3     4   ar
    20     4     5   ar
    21     5     6    1
    22     5     7   ar
    23     7     8    2
    24    24    19   ar
    25     7     1   ar
    26    15     9    1
    27    14    16    1
    28    14    17    1
@<TRIPOS>MOLECULE
*****
 26 28 0 0 0
SMALL
GASTEIGER

@<TRIPOS>ATOM
      1 N          63.3389   90.1873   12.9213 N.ar    1  UNL1       -0.2626
      2 C          64.2880   89.8575   14.0351 C.ar    1  UNL1        0.2038
      3 N          65.5789   90.6098   14.1680 N.ar    1  UNL1       -0.2109
      4 C          65.9207   91.6920   13.1870 C.ar    1  UNL1        0.1362
      5 C          64.9716   92.0217   12.0732 C.ar    1  UNL1        0.2150
      6 F          65.3134   93.1039   11.0922 F       1  UNL1       -0.1975
      7 C          63.6808   91.2694   11.9404 C.ar    1  UNL1        0.2923
      8 O          62.7317   91.5992   10.8265 O.2     1  UNL1       -0.2644
      9 N          63.9462   88.7754   15.0160 N.pl3   1  UNL1       -0.2781
     10 C          63.2125   89.1133   16.2800 C.3     1  UNL1        0.0937
     11 C          62.8707   88.0312   17.2609 C.3     1  UNL1        0.0229
     12 C          63.2626   86.6112   16.9778 C.3     1  UNL1        0.0190
     13 C          63.9962   86.2733   15.7139 C.3     1  UNL1        0.0710
     14 N          64.3881   84.8534   15.4308 N.3     1  UNL1       -0.3208
     15 C          64.3380   87.3555   14.7330 C.3     1  UNL1        0.1089
     16 H          64.8750   84.8070   14.5358 H       1  UNL1        0.1189
     17 H          63.5516   84.2709   15.3934 H       1  UNL1        0.1189
     18 C          62.0481   89.4350   12.7884 C.3     1  UNL1        0.1392
     19 C          60.5784   89.0361   10.6835 C.ar    1  UNL1        0.0663
     20 C          60.2854   88.2645    9.4309 C.ar    1  UNL1        0.0100
     21 C          61.1692   87.1205    9.0307 C.ar    1  UNL1        0.0007
     22 C          62.3459   86.7480    9.8831 C.ar    1  UNL1       -0.0002
     23 C          62.6388   87.5194   11.1357 C.ar    1  UNL1       -0.0017
     24 C          61.7551   88.6635   11.5359 C.ar    1  UNL1        0.0102
     25 N          58.8108   91.3241   11.4838 N.1     1  UNL1       -0.1908
     26 C          59.6946   90.1801   11.0836 C.1     1  UNL1        0.1002
@<TRIPOS>BOND
     1    25    26    3
     2    26    19    1
     3    19    20   ar
     4    20    21   ar
     5    21    22   ar
     6    22    23   ar
     7    23    24   ar
     8    24    18    1
     9    18     1    1
    10     1     2   ar
    11     2     9    1
    12     9    10    1
    13    10    11    1
    14    11    12    1
    15    12    13    1
    16    13    14    1
    17    13    15    1
    18     2     3   ar
    19     3     4   ar
    20     4     5   ar
    21     5     6    1
    22     5     7   ar
    23     7     8    2
    24    24    19   ar
    25     7     1   ar
    26    15     9    1
    27    14    16    1
    28    14    17    1
@<TRIPOS>MOLECULE
*****
 26 28 0 0 0
SMALL
GASTEIGER

@<TRIPOS>ATOM
      1 N          62.4041   87.4471   11.6586 N.ar    1  UNL1       -0.2626
      2 C          62.0518   88.1479   10.3800 C.ar    1  UNL1        0.2038
      3 N          62.5533   89.5382   10.1239 N.ar    1  UNL1       -0.2109
      4 C          63.4072   90.2277   11.1465 C.ar    1  UNL1        0.1362
      5 C          63.7594   89.5269   12.4251 C.ar    1  UNL1        0.2150
      6 F          64.6132   90.2164   13.4477 F       1  UNL1       -0.1975
      7 C          63.2579   88.1366   12.6812 C.ar    1  UNL1        0.2923
      8 O          63.6101   87.4359   13.9598 O.2     1  UNL1       -0.2644
      9 N          61.1980   87.4583    9.3575 N.pl3   1  UNL1       -0.2781
     10 C          59.7420   87.8000    9.2426 C.3     1  UNL1        0.0937
     11 C          58.8882   87.1105    8.2201 C.3     1  UNL1        0.0229
     12 C          59.4905   86.0792    7.3124 C.3     1  UNL1        0.0190
     13 C          60.9465   85.7376    7.4272 C.3     1  UNL1        0.0710
     14 N          61.5488   84.7064    6.5196 N.3     1  UNL1       -0.3208
     15 C          61.8003   86.4272    8.4498 C.3     1  UNL1        0.1089
     16 H          62.5403   84.6015    6.7348 H       1  UNL1        0.1189
     17 H          61.4410   85.0027    5.5495 H       1  UNL1        0.1189
     18 C          61.9026   86.0568   11.9147 C.3     1  UNL1        0.1392
     19 C          63.2242   84.0259   12.8520 C.ar    1  UNL1        0.0663
     20 C          64.1281   82.8496   12.6295 C.ar    1  UNL1        0.0100
     21 C          64.6142   82.5281   11.2474 C.ar    1  UNL1        0.0007
     22 C          64.1964   83.3828   10.0877 C.ar    1  UNL1       -0.0002
     23 C          63.2925   84.5591   10.3101 C.ar    1  UNL1       -0.0017
     24 C          62.8064   84.8806   11.6923 C.ar    1  UNL1        0.0102
     25 N          62.2520   84.6690   15.6163 N.1     1  UNL1       -0.1908
     26 C          62.7382   84.3474   14.2341 C.1     1  UNL1        0.1002
@<TRIPOS>BOND
     1    25    26    3
     2    26    19    1
     3    19    20   ar
     4    20    21   ar
     5    21    22   ar
     6    22    23   ar
     7    23    24   ar
     8    24    18    1
     9    18     1    1
    10     1     2   ar
    11     2     9    1
    12     9    10    1
    13    10    11    1
    14    11    12    1
    15    12    13    1
    16    13    14    1
    17    13    15    1
    18     2     3   ar
    19     3     4   ar
    20     4     5   ar
    21     5     6    1
    22     5     7   ar
    23     7     8    2
    24    24    19   ar
    25     7     1   ar
    26    15     9    1
    27    14    16    1
    28    14    17    1
@<TRIPOS>MOLECULE
*****
 26 28 0 0 0
SMALL
GASTEIGER

@<TRIPOS>ATOM
      1 N          61.2233   87.6083   10.1818 N.ar    1  UNL1       -0.2626
      2 C          61.5179   86.2196    9.6971 C.ar    1  UNL1        0.2038
      3 N          60.8814   85.7145    8.4363 N.ar    1  UNL1       -0.2109
      4 C          59.9503   86.5981    7.6601 C.ar    1  UNL1        0.1362
      5 C          59.6557   87.9867    8.1448 C.ar    1  UNL1        0.2150
      6 F          58.7246   88.8703    7.3686 F       1  UNL1       -0.1975
      7 C          60.2922   88.4918    9.4056 C.ar    1  UNL1        0.2923
      8 O          59.9975   89.8805    9.8903 O.2     1  UNL1       -0.2644
      9 N          62.4490   85.3362   10.4733 N.pl3   1  UNL1       -0.2781
     10 C          63.3114   84.3409    9.7553 C.3     1  UNL1        0.0937
     11 C          64.2425   83.4574   10.5314 C.3     1  UNL1        0.0229
     12 C          64.3112   83.5692   12.0257 C.3     1  UNL1        0.0190
     13 C          63.4488   84.5644   12.7438 C.3     1  UNL1        0.0710
     14 N          63.5174   84.6762   14.2380 N.3     1  UNL1       -0.3208
     15 C          62.5176   85.4480   11.9675 C.3     1  UNL1        0.1089
     16 H          62.8691   85.3970   14.5552 H       1  UNL1        0.1189
     17 H          64.4662   84.9258   14.5171 H       1  UNL1        0.1189
     18 C          61.8598   88.1134   11.4426 C.3     1  UNL1        0.1392
     19 C          63.6257   89.6616   12.5537 C.ar    1  UNL1        0.0663
     20 C          64.4678   90.9027   12.5237 C.ar    1  UNL1        0.0100
     21 C          64.3857   91.8365   11.3528 C.ar    1  UNL1        0.0007
     22 C          63.4617   91.5294   10.2118 C.ar    1  UNL1       -0.0002
     23 C          62.6197   90.2884   10.2417 C.ar    1  UNL1       -0.0017
     24 C          62.7017   89.3544   11.4127 C.ar    1  UNL1        0.0102
     25 N          63.7898   87.7938   14.8956 N.1     1  UNL1       -0.1908
     26 C          63.7078   88.7277   13.7246 C.1     1  UNL1        0.1002
@<TRIPOS>BOND
     1    25    26    3
     2    26    19    1
     3    19    20   ar
     4    20    21   ar
     5    21    22   ar
     6    22    23   ar
     7    23    24   ar
     8    24    18    1
     9    18     1    1
    10     1     2   ar
    11     2     9    1
    12     9    10    1
    13    10    11    1
    14    11    12    1
    15    12    13    1
    16    13    14    1
    17    13    15    1
    18     2     3   ar
    19     3     4   ar
    20     4     5   ar
    21     5     6    1
    22     5     7   ar
    23     7     8    2
    24    24    19   ar
    25     7     1   ar
    26    15     9    1
    27    14    16    1
    28    14    17    1
@<TRIPOS>MOLECULE
*****
 26 28 0 0 0
SMALL
GASTEIGER

@<TRIPOS>ATOM
      1 N          61.2182   87.6324   10.6602 N.ar    1  UNL1       -0.2626
      2 C          61.8516   88.9174   11.1046 C.ar    1  UNL1        0.2038
      3 N          61.6688   90.1643   10.2911 N.ar    1  UNL1       -0.2109
      4 C          60.8526   90.1262    9.0331 C.ar    1  UNL1        0.1362
      5 C          60.2192   88.8411    8.5887 C.ar    1  UNL1        0.2150
      6 F          59.4030   88.8030    7.3308 F       1  UNL1       -0.1975
      7 C          60.4020   87.5943    9.4023 C.ar    1  UNL1        0.2923
      8 O          59.7686   86.3092    8.9578 O.2     1  UNL1       -0.2644
      9 N          62.6678   88.9556   12.3625 N.pl3   1  UNL1       -0.2781
     10 C          63.4614   87.7526   12.7784 C.3     1  UNL1        0.0937
     11 C          64.2775   87.7907   14.0363 C.3     1  UNL1        0.0229
     12 C          64.3001   89.0319   14.8784 C.3     1  UNL1        0.0190
     13 C          63.5065   90.2349   14.4625 C.3     1  UNL1        0.0710
     14 N          63.5291   91.4760   15.3045 N.3     1  UNL1       -0.3208
     15 C          62.6903   90.1967   13.2045 C.3     1  UNL1        0.1089
     16 H          62.9384   92.1885   14.8758 H       1  UNL1        0.1189
     17 H          64.4857   91.8234   15.3726 H       1  UNL1        0.1189
     18 C          61.4010   86.3855   11.4737 C.3     1  UNL1        0.1392
     19 C          62.8992   84.3253   11.9845 C.ar    1  UNL1        0.0663
     20 C          63.8403   83.2553   11.5159 C.ar    1  UNL1        0.0100
     21 C          64.2239   83.1754   10.0680 C.ar    1  UNL1        0.0007
     22 C          63.6667   84.1656    9.0887 C.ar    1  UNL1       -0.0002
     23 C          62.7257   85.2356    9.5572 C.ar    1  UNL1       -0.0017
     24 C          62.3419   85.3155   11.0052 C.ar    1  UNL1        0.0102
     25 N          62.1318   84.4850   14.8803 N.1     1  UNL1       -0.1908
     26 C          62.5155   84.4052   13.4324 C.1     1  UNL1        0.1002
@<TRIPOS>BOND
     1    25    26    3
     2    26    19    1
     3    19    20   ar
     4    20    21   ar
     5    21    22   ar
     6    22    23   ar
     7    23    24   ar
     8    24    18    1
     9    18     1    1
    10     1     2   ar
    11     2     9    1
    12     9    10    1
    13    10    11    1
    14    11    12    1
    15    12    13    1
    16    13    14    1
    17    13    15    1
    18     2     3   ar
    19     3     4   ar
    20     4     5   ar
    21     5     6    1
    22     5     7   ar
    23     7     8    2
    24    24    19   ar
    25     7     1   ar
    26    15     9    1
    27    14    16    1
    28    14    17    1
@<TRIPOS>MOLECULE
*****
 26 28 0 0 0
SMALL
GASTEIGER

@<TRIPOS>ATOM
      1 N          64.3582   89.5639   13.4168 N.ar    1  UNL1       -0.2626
      2 C          64.7381   91.0065   13.2594 C.ar    1  UNL1        0.2038
      3 N          64.0424   91.8582   12.2394 N.ar    1  UNL1       -0.2109
      4 C          62.9668   91.2673   11.3767 C.ar    1  UNL1        0.1362
      5 C          62.5870   89.8248   11.5341 C.ar    1  UNL1        0.2150
      6 F          61.5114   89.2340   10.6715 F       1  UNL1       -0.1975
      7 C          63.2827   88.9731   12.5542 C.ar    1  UNL1        0.2923
      8 O          62.9028   87.5305   12.7116 O.2     1  UNL1       -0.2644
      9 N          65.8136   91.5972   14.1221 N.pl3   1  UNL1       -0.2781
     10 C          65.4698   92.1603   15.4692 C.3     1  UNL1        0.0937
     11 C          66.5454   92.7511   16.3318 C.3     1  UNL1        0.0229
     12 C          67.9647   92.7788   15.8473 C.3     1  UNL1        0.0190
     13 C          68.3085   92.2158   14.5002 C.3     1  UNL1        0.0710
     14 N          69.7278   92.2435   14.0157 N.3     1  UNL1       -0.3208
     15 C          67.2329   91.6250   13.6375 C.3     1  UNL1        0.1089
     16 H          69.7786   91.8227   13.0879 H       1  UNL1        0.1189
     17 H          70.3175   91.7173   14.6604 H       1  UNL1        0.1189
     18 C          65.0539   88.7121   14.4369 C.3     1  UNL1        0.1392
     19 C          63.3797   88.2967   16.3797 C.ar    1  UNL1        0.0663
     20 C          62.5879   87.3498   17.2320 C.ar    1  UNL1        0.0100
     21 C          62.6784   85.8716   16.9939 C.ar    1  UNL1        0.0007
     22 C          63.5608   85.3402   15.9035 C.ar    1  UNL1       -0.0002
     23 C          64.3526   86.2870   15.0511 C.ar    1  UNL1       -0.0017
     24 C          64.2621   87.7653   15.2892 C.ar    1  UNL1        0.0102
     25 N          63.1986   91.2531   16.8559 N.1     1  UNL1       -0.1908
     26 C          63.2891   89.7748   16.6178 C.1     1  UNL1        0.1002
@<TRIPOS>BOND
     1    25    26    3
     2    26    19    1
     3    19    20   ar
     4    20    21   ar
     5    21    22   ar
     6    22    23   ar
     7    23    24   ar
     8    24    18    1
     9    18     1    1
    10     1     2   ar
    11     2     9    1
    12     9    10    1
    13    10    11    1
    14    11    12    1
    15    12    13    1
    16    13    14    1
    17    13    15    1
    18     2     3   ar
    19     3     4   ar
    20     4     5   ar
    21     5     6    1
    22     5     7   ar
    23     7     8    2
    24    24    19   ar
    25     7     1   ar
    26    15     9    1
    27    14    16    1
    28    14    17    1
@<TRIPOS>MOLECULE
*****
 26 28 0 0 0
SMALL
GASTEIGER

@<TRIPOS>ATOM
      1 N          62.9659   84.8720   13.0176 N.ar    1  UNL1       -0.2626
      2 C          63.8830   85.7313   13.8367 C.ar    1  UNL1        0.2038
      3 N          64.8438   85.0981   14.7988 N.ar    1  UNL1       -0.2109
      4 C          64.8876   83.6055   14.9420 C.ar    1  UNL1        0.1362
      5 C          63.9707   82.7463   14.1230 C.ar    1  UNL1        0.2150
      6 F          64.0145   81.2537   14.2661 F       1  UNL1       -0.1975
      7 C          63.0098   83.3795   13.1608 C.ar    1  UNL1        0.2923
      8 O          62.0928   82.5202   12.3418 O.2     1  UNL1       -0.2644
      9 N          63.8391   87.2238   13.6935 N.pl3   1  UNL1       -0.2781
     10 C          64.3780   88.0983   14.7866 C.3     1  UNL1        0.0937
     11 C          64.3341   89.5908   14.6434 C.3     1  UNL1        0.0229
     12 C          63.7513   90.2088   13.4071 C.3     1  UNL1        0.0190
     13 C          63.2124   89.3344   12.3140 C.3     1  UNL1        0.0710
     14 N          62.6297   89.9524   11.0777 N.3     1  UNL1       -0.3208
     15 C          63.2563   87.8418   12.4572 C.3     1  UNL1        0.1089
     16 H          62.3144   89.2163   10.4459 H       1  UNL1        0.1189
     17 H          63.3400   90.5180   10.6131 H       1  UNL1        0.1189
     18 C          62.0051   85.5053   12.0555 C.3     1  UNL1        0.1392
     19 C          61.5106   86.2963    9.6307 C.ar    1  UNL1        0.0663
     20 C          61.7415   86.1783    8.1532 C.ar    1  UNL1        0.0100
     21 C          62.6977   85.1513    7.6232 C.ar    1  UNL1        0.0007
     22 C          63.4230   84.2423    8.5706 C.ar    1  UNL1       -0.0002
     23 C          63.1922   84.3603   10.0480 C.ar    1  UNL1       -0.0017
     24 C          62.2359   85.3873   10.5781 C.ar    1  UNL1        0.0102
     25 N          59.5981   88.3503   10.6906 N.1     1  UNL1       -0.1908
     26 C          60.5544   87.3232   10.1607 C.1     1  UNL1        0.1002
@<TRIPOS>BOND
     1    25    26    3
     2    26    19    1
     3    19    20   ar
     4    20    21   ar
     5    21    22   ar
     6    22    23   ar
     7    23    24   ar
     8    24    18    1
     9    18     1    1
    10     1     2   ar
    11     2     9    1
    12     9    10    1
    13    10    11    1
    14    11    12    1
    15    12    13    1
    16    13    14    1
    17    13    15    1
    18     2     3   ar
    19     3     4   ar
    20     4     5   ar
    21     5     6    1
    22     5     7   ar
    23     7     8    2
    24    24    19   ar
    25     7     1   ar
    26    15     9    1
    27    14    16    1
    28    14    17    1
@<TRIPOS>MOLECULE
*****
 26 28 0 0 0
SMALL
GASTEIGER

@<TRIPOS>ATOM
      1 N          63.7612   85.4624   13.0614 N.ar    1  UNL1       -0.2626
      2 C          62.7565   85.5655   11.9524 C.ar    1  UNL1        0.2038
      3 N          62.3444   84.3367   11.1972 N.ar    1  UNL1       -0.2109
      4 C          62.9371   83.0049   11.5509 C.ar    1  UNL1        0.1362
      5 C          63.9418   82.9019   12.6599 C.ar    1  UNL1        0.2150
      6 F          64.5345   81.5701   13.0137 F       1  UNL1       -0.1975
      7 C          64.3539   84.1306   13.4152 C.ar    1  UNL1        0.2923
      8 O          65.3587   84.0275   14.5242 O.2     1  UNL1       -0.2644
      9 N          62.1638   86.8972   11.5987 N.pl3   1  UNL1       -0.2781
     10 C          60.7563   86.9797   11.0868 C.3     1  UNL1        0.0937
     11 C          60.1636   88.3114   10.7331 C.3     1  UNL1        0.0229
     12 C          60.9786   89.5608   10.8913 C.3     1  UNL1        0.0190
     13 C          62.3861   89.4784   11.4032 C.3     1  UNL1        0.0710
     14 N          63.2010   90.7277   11.5613 N.3     1  UNL1       -0.3208
     15 C          62.9787   88.1465   11.7569 C.3     1  UNL1        0.1089
     16 H          64.1261   90.4874   11.9176 H       1  UNL1        0.1189
     17 H          62.7366   91.3558   12.2173 H       1  UNL1        0.1189
     18 C          64.1733   86.6911   13.8167 C.3     1  UNL1        0.1392
     19 C          63.6355   88.3051   15.7803 C.ar    1  UNL1        0.0663
     20 C          63.1335   88.5314   17.1756 C.ar    1  UNL1        0.0100
     21 C          62.6675   87.3700   18.0026 C.ar    1  UNL1        0.0007
     22 C          62.7034   85.9823   17.4343 C.ar    1  UNL1       -0.0002
     23 C          63.2053   85.7560   16.0390 C.ar    1  UNL1       -0.0017
     24 C          63.6714   86.9174   15.2120 C.ar    1  UNL1        0.0102
     25 N          64.5675   90.6280   14.1263 N.1     1  UNL1       -0.1908
     26 C          64.1015   89.4665   14.9533 C.1     1  UNL1        0.1002
@<TRIPOS>BOND
     1    25    26    3
     2    26    19    1
     3    19    20   ar
     4    20    21   ar
     5    21    22   ar
     6    22    23   ar
     7    23    24   ar
     8    24    18    1
     9    18     1    1
    10     1     2   ar
    11     2     9    1
    12     9    10    1
    13    10    11    1
    14    11    12    1
    15    12    13    1
    16    13    14    1
    17    13    15    1
    18     2     3   ar
    19     3     4   ar
    20     4     5   ar
    21     5     6    1
    22     5     7   ar
    23     7     8    2
    24    24    19   ar
    25     7     1   ar
    26    15     9    1
    27    14    16    1
    28    14    17    1
