@<TRIPOS>MOLECULE
*****
 30 33 0 0 0
SMALL
GASTEIGER

@<TRIPOS>ATOM
      1 C          64.4818   91.1183   13.4954 C.ar    1  UNL1        0.1266
      2 C          64.0746   91.1714   14.9382 C.ar    1  UNL1        0.1128
      3 N          64.8902   91.9604   15.9191 N.ar    1  UNL1       -0.1925
      4 C          66.1130   92.6964   15.4573 C.ar    1  UNL1        0.3192
      5 O          66.9285   93.4854   16.4382 O.3     1  UNL1       -0.4783
      6 N          66.5201   92.6433   14.0146 N.ar    1  UNL1       -0.1587
      7 C          65.7046   91.8542   13.0336 C.ar    1  UNL1        0.2393
      8 H          66.6742   93.5186   17.3394 H       1  UNL1        0.2953
      9 C          63.1091   84.3909   13.1670 C.3     1  UNL1        0.1123
     10 N          63.2484   85.8755   13.0039 N.pl3   1  UNL1       -0.3031
     11 C          64.0639   86.6645   13.9848 C.3     1  UNL1        0.1128
     12 C          64.2032   88.1491   13.8216 C.3     1  UNL1        0.1199
     13 N          63.5270   88.8446   12.6776 N.am    1  UNL1       -0.2521
     14 C          63.6663   90.3292   12.5145 C.2     1  UNL1        0.2589
     15 O          62.9899   91.0247   11.3704 O.2     1  UNL1       -0.2693
     16 C          62.7113   88.0556   11.6966 C.ar    1  UNL1        0.0675
     17 C          62.0351   88.7511   10.5526 C.ar    1  UNL1        0.0162
     18 C          61.2195   87.9621    9.5717 C.ar    1  UNL1        0.0014
     19 C          61.0802   86.4775    9.7348 C.ar    1  UNL1        0.0014
     20 C          61.7565   85.7819   10.8789 C.ar    1  UNL1        0.0158
     21 C          62.5720   86.5710   11.8598 C.ar    1  UNL1        0.0618
     22 O          66.1118   91.8011   11.5910 O.3     1  UNL1       -0.4349
     23 C          66.4667   93.0648   10.8648 C.ar    1  UNL1        0.1585
     24 C          65.7081   94.3284   11.1437 C.ar    1  UNL1        0.0498
     25 C          66.0630   95.5920   10.4176 C.ar    1  UNL1        0.0608
     26 CL         65.3043   96.8557   10.6966 Cl      1  UNL1       -0.0821
     27 C          67.1765   95.5921    9.4126 C.ar    1  UNL1        0.0125
     28 C          67.9351   94.3284    9.1336 C.ar    1  UNL1        0.0153
     29 C          67.5802   93.0648    9.8598 C.ar    1  UNL1        0.0922
     30 CL         68.3388   91.8012    9.5809 Cl      1  UNL1       -0.0791
@<TRIPOS>BOND
     1     9    10    1
     2    10    11    1
     3    11    12    1
     4    12    13    1
     5    13    14   am
     6    14    15    2
     7    14     1    1
     8     1     2   ar
     9     2     3   ar
    10     3     4   ar
    11     4     5    1
    12     4     6   ar
    13     6     7   ar
    14     7    22    1
    15    22    23    1
    16    23    24   ar
    17    24    25   ar
    18    25    26    1
    19    25    27   ar
    20    27    28   ar
    21    28    29   ar
    22    29    30    1
    23    13    16    1
    24    16    17   ar
    25    17    18   ar
    26    18    19   ar
    27    19    20   ar
    28    20    21   ar
    29    21    10    1
    30     7     1   ar
    31    29    23   ar
    32    21    16   ar
    33     5     8    1
@<TRIPOS>MOLECULE
*****
 30 33 0 0 0
SMALL
GASTEIGER

@<TRIPOS>ATOM
      1 C          62.2648   89.1315   12.0438 C.ar    1  UNL1        0.1266
      2 C          61.1403   89.8398   11.3482 C.ar    1  UNL1        0.1128
      3 N          60.2458   89.0860   10.4092 N.ar    1  UNL1       -0.1925
      4 C          60.4758   87.6238   10.1659 C.ar    1  UNL1        0.3192
      5 O          59.5813   86.8699    9.2270 O.3     1  UNL1       -0.4783
      6 N          61.6003   86.9155   10.8615 N.ar    1  UNL1       -0.1587
      7 C          62.4948   87.6693   11.8005 C.ar    1  UNL1        0.2393
      8 H          58.8789   87.3124    8.7925 H       1  UNL1        0.2953
      9 C          66.6243   94.3239   10.9108 C.3     1  UNL1        0.1123
     10 N          65.7581   93.2143   11.4288 N.pl3   1  UNL1       -0.3031
     11 C          64.8636   92.4604   10.4898 C.3     1  UNL1        0.1128
     12 C          63.9973   91.3508   11.0078 C.3     1  UNL1        0.1199
     13 N          64.0255   90.9950   12.4647 N.am    1  UNL1       -0.2521
     14 C          63.1593   89.8854   12.9827 C.2     1  UNL1        0.2589
     15 O          63.1875   89.5296   14.4397 O.2     1  UNL1       -0.2693
     16 C          64.9200   91.7489   13.4037 C.ar    1  UNL1        0.0675
     17 C          64.9482   91.3931   14.8606 C.ar    1  UNL1        0.0162
     18 C          65.8427   92.1469   15.7995 C.ar    1  UNL1        0.0014
     19 C          66.7090   93.2566   15.2815 C.ar    1  UNL1        0.0014
     20 C          66.6808   93.6123   13.8246 C.ar    1  UNL1        0.0158
     21 C          65.7863   92.8585   12.8857 C.ar    1  UNL1        0.0618
     22 O          63.6192   86.9610   12.4961 O.3     1  UNL1       -0.4349
     23 C          63.3991   85.5972   13.0805 C.ar    1  UNL1        0.1585
     24 C          62.9842   84.4599   12.1949 C.ar    1  UNL1        0.0498
     25 C          62.7641   83.0960   12.7793 C.ar    1  UNL1        0.0608
     26 CL         62.3491   81.9586   11.8937 Cl      1  UNL1       -0.0821
     27 C          62.9589   82.8695   14.2492 C.ar    1  UNL1        0.0125
     28 C          63.3739   84.0069   15.1349 C.ar    1  UNL1        0.0153
     29 C          63.5940   85.3708   14.5505 C.ar    1  UNL1        0.0922
     30 CL         64.0089   86.5081   15.4360 Cl      1  UNL1       -0.0791
@<TRIPOS>BOND
     1     9    10    1
     2    10    11    1
     3    11    12    1
     4    12    13    1
     5    13    14   am
     6    14    15    2
     7    14     1    1
     8     1     2   ar
     9     2     3   ar
    10     3     4   ar
    11     4     5    1
    12     4     6   ar
    13     6     7   ar
    14     7    22    1
    15    22    23    1
    16    23    24   ar
    17    24    25   ar
    18    25    26    1
    19    25    27   ar
    20    27    28   ar
    21    28    29   ar
    22    29    30    1
    23    13    16    1
    24    16    17   ar
    25    17    18   ar
    26    18    19   ar
    27    19    20   ar
    28    20    21   ar
    29    21    10    1
    30     7     1   ar
    31    29    23   ar
    32    21    16   ar
    33     5     8    1
@<TRIPOS>MOLECULE
*****
 30 33 0 0 0
SMALL
GASTEIGER

@<TRIPOS>ATOM
      1 C          61.9676   88.9315   11.4853 C.ar    1  UNL1        0.1266
      2 C          60.9269   89.7468   10.7764 C.ar    1  UNL1        0.1128
      3 N          59.9769   89.0850    9.8228 N.ar    1  UNL1       -0.1925
      4 C          60.0675   87.6079    9.5779 C.ar    1  UNL1        0.3192
      5 O          59.1175   86.9461    8.6242 O.3     1  UNL1       -0.4783
      6 N          61.1081   86.7926   10.2867 N.ar    1  UNL1       -0.1587
      7 C          62.0581   87.4544   11.2404 C.ar    1  UNL1        0.2393
      8 H          58.4675   87.4554    8.1814 H       1  UNL1        0.2953
      9 C          66.1422   94.3296   10.6587 C.3     1  UNL1        0.1123
     10 N          65.3360   93.1455   11.1037 N.pl3   1  UNL1       -0.3031
     11 C          64.3860   92.4837   10.1501 C.3     1  UNL1        0.1128
     12 C          63.5799   91.2996   10.5951 C.3     1  UNL1        0.1199
     13 N          63.7237   90.7773   11.9939 N.am    1  UNL1       -0.2521
     14 C          62.9175   89.5933   12.4389 C.2     1  UNL1        0.2589
     15 O          63.0614   89.0710   13.8377 O.2     1  UNL1       -0.2693
     16 C          64.6737   91.4391   12.9476 C.ar    1  UNL1        0.0675
     17 C          64.8176   90.9168   14.3463 C.ar    1  UNL1        0.0162
     18 C          65.7675   91.5786   15.3000 C.ar    1  UNL1        0.0014
     19 C          66.5737   92.7627   14.8549 C.ar    1  UNL1        0.0014
     20 C          66.4299   93.2850   13.4562 C.ar    1  UNL1        0.0158
     21 C          65.4799   92.6232   12.5026 C.ar    1  UNL1        0.0618
     22 O          63.0987   86.6391   11.9492 O.3     1  UNL1       -0.4349
     23 C          62.9527   85.1487   12.0364 C.ar    1  UNL1        0.1585
     24 C          62.6118   84.5040   13.3472 C.ar    1  UNL1        0.0498
     25 C          62.4658   83.0137   13.4344 C.ar    1  UNL1        0.0608
     26 CL         62.1249   82.3689   14.7452 Cl      1  UNL1       -0.0821
     27 C          62.6607   82.1681   12.2109 C.ar    1  UNL1        0.0125
     28 C          63.0016   82.8128   10.9001 C.ar    1  UNL1        0.0153
     29 C          63.1476   84.3032   10.8128 C.ar    1  UNL1        0.0922
     30 CL         63.4884   84.9479    9.5021 Cl      1  UNL1       -0.0791
@<TRIPOS>BOND
     1     9    10    1
     2    10    11    1
     3    11    12    1
     4    12    13    1
     5    13    14   am
     6    14    15    2
     7    14     1    1
     8     1     2   ar
     9     2     3   ar
    10     3     4   ar
    11     4     5    1
    12     4     6   ar
    13     6     7   ar
    14     7    22    1
    15    22    23    1
    16    23    24   ar
    17    24    25   ar
    18    25    26    1
    19    25    27   ar
    20    27    28   ar
    21    28    29   ar
    22    29    30    1
    23    13    16    1
    24    16    17   ar
    25    17    18   ar
    26    18    19   ar
    27    19    20   ar
    28    20    21   ar
    29    21    10    1
    30     7     1   ar
    31    29    23   ar
    32    21    16   ar
    33     5     8    1
@<TRIPOS>MOLECULE
*****
 30 33 0 0 0
SMALL
GASTEIGER

@<TRIPOS>ATOM
      1 C          61.2003   89.4880   11.1122 C.ar    1  UNL1        0.1266
      2 C          60.5101   90.5043   10.2514 C.ar    1  UNL1        0.1128
      3 N          59.6436   90.0573    9.1115 N.ar    1  UNL1       -0.1925
      4 C          59.4673   88.5941    8.8323 C.ar    1  UNL1        0.3192
      5 O          58.6008   88.1472    7.6924 O.3     1  UNL1       -0.4783
      6 N          60.1575   87.5778    9.6930 N.ar    1  UNL1       -0.1587
      7 C          61.0241   88.0248   10.8330 C.ar    1  UNL1        0.2393
      8 H          58.1697   88.7820    7.1548 H       1  UNL1        0.2953
      9 C          66.7520   93.5397   11.2250 C.3     1  UNL1        0.1123
     10 N          65.5807   92.6385   11.4818 N.pl3   1  UNL1       -0.3031
     11 C          64.7142   92.1916   10.3419 C.3     1  UNL1        0.1128
     12 C          63.5429   91.2904   10.5987 C.3     1  UNL1        0.1199
     13 N          63.2381   90.8361   11.9953 N.am    1  UNL1       -0.2521
     14 C          62.0668   89.9349   12.2521 C.2     1  UNL1        0.2589
     15 O          61.7620   89.4807   13.6488 O.2     1  UNL1       -0.2693
     16 C          64.1046   91.2831   13.1353 C.ar    1  UNL1        0.0675
     17 C          63.7998   90.8288   14.5320 C.ar    1  UNL1        0.0162
     18 C          64.6663   91.2758   15.6718 C.ar    1  UNL1        0.0014
     19 C          65.8376   92.1770   15.4151 C.ar    1  UNL1        0.0014
     20 C          66.1424   92.6312   14.0184 C.ar    1  UNL1        0.0158
     21 C          65.2759   92.1843   12.8785 C.ar    1  UNL1        0.0618
     22 O          61.7142   87.0085   11.6936 O.3     1  UNL1       -0.4349
     23 C          62.4002   85.8332   11.0628 C.ar    1  UNL1        0.1585
     24 C          62.4648   85.7155    9.5689 C.ar    1  UNL1        0.0498
     25 C          63.1508   84.5402    8.9381 C.ar    1  UNL1        0.0608
     26 CL         63.2154   84.4226    7.4440 Cl      1  UNL1       -0.0821
     27 C          63.7723   83.4825    9.8012 C.ar    1  UNL1        0.0125
     28 C          63.7077   83.6001   11.2952 C.ar    1  UNL1        0.0153
     29 C          63.0217   84.7754   11.9260 C.ar    1  UNL1        0.0922
     30 CL         62.9571   84.8931   13.4200 Cl      1  UNL1       -0.0791
@<TRIPOS>BOND
     1     9    10    1
     2    10    11    1
     3    11    12    1
     4    12    13    1
     5    13    14   am
     6    14    15    2
     7    14     1    1
     8     1     2   ar
     9     2     3   ar
    10     3     4   ar
    11     4     5    1
    12     4     6   ar
    13     6     7   ar
    14     7    22    1
    15    22    23    1
    16    23    24   ar
    17    24    25   ar
    18    25    26    1
    19    25    27   ar
    20    27    28   ar
    21    28    29   ar
    22    29    30    1
    23    13    16    1
    24    16    17   ar
    25    17    18   ar
    26    18    19   ar
    27    19    20   ar
    28    20    21   ar
    29    21    10    1
    30     7     1   ar
    31    29    23   ar
    32    21    16   ar
    33     5     8    1
@<TRIPOS>MOLECULE
*****
 30 33 0 0 0
SMALL
GASTEIGER

@<TRIPOS>ATOM
      1 C          63.5835   88.8578   15.0243 C.ar    1  UNL1        0.1266
      2 C          63.1290   89.4040   16.3454 C.ar    1  UNL1        0.1128
      3 N          62.8166   88.4692   17.4760 N.ar    1  UNL1       -0.1925
      4 C          62.9587   86.9881   17.2857 C.ar    1  UNL1        0.3192
      5 O          62.6464   86.0533   18.4164 O.3     1  UNL1       -0.4783
      6 N          63.4132   86.4419   15.9648 N.ar    1  UNL1       -0.1587
      7 C          63.7256   87.3767   14.8340 C.ar    1  UNL1        0.2393
      8 H          62.3625   86.3945   19.2416 H       1  UNL1        0.2953
      9 C          67.6440   94.3977   14.7567 C.3     1  UNL1        0.1123
     10 N          66.7069   93.2465   14.5410 N.pl3   1  UNL1       -0.3031
     11 C          66.3946   92.3116   15.6716 C.3     1  UNL1        0.1128
     12 C          65.4576   91.1603   15.4558 C.3     1  UNL1        0.1199
     13 N          64.8329   90.9439   14.1094 N.am    1  UNL1       -0.2521
     14 C          63.8959   89.7926   13.8937 C.2     1  UNL1        0.2589
     15 O          63.2712   89.5762   12.5471 O.2     1  UNL1       -0.2693
     16 C          65.1453   91.8788   12.9787 C.ar    1  UNL1        0.0675
     17 C          64.5206   91.6624   11.6322 C.ar    1  UNL1        0.0162
     18 C          64.8330   92.5972   10.5016 C.ar    1  UNL1        0.0014
     19 C          65.7700   93.7485   10.7173 C.ar    1  UNL1        0.0014
     20 C          66.3946   93.9649   12.0638 C.ar    1  UNL1        0.0158
     21 C          66.0823   93.0301   13.1944 C.ar    1  UNL1        0.0618
     22 O          64.1801   86.8305   13.5130 O.3     1  UNL1       -0.4349
     23 C          63.6562   85.5119   13.0264 C.ar    1  UNL1        0.1585
     24 C          64.0658   84.2426   13.7127 C.ar    1  UNL1        0.0498
     25 C          63.5419   82.9241   13.2260 C.ar    1  UNL1        0.0608
     26 CL         63.9515   81.6547   13.9124 Cl      1  UNL1       -0.0821
     27 C          62.6083   82.8748   12.0530 C.ar    1  UNL1        0.0125
     28 C          62.1987   84.1441   11.3666 C.ar    1  UNL1        0.0153
     29 C          62.7226   85.4627   11.8533 C.ar    1  UNL1        0.0922
     30 CL         62.3130   86.7319   11.1669 Cl      1  UNL1       -0.0791
@<TRIPOS>BOND
     1     9    10    1
     2    10    11    1
     3    11    12    1
     4    12    13    1
     5    13    14   am
     6    14    15    2
     7    14     1    1
     8     1     2   ar
     9     2     3   ar
    10     3     4   ar
    11     4     5    1
    12     4     6   ar
    13     6     7   ar
    14     7    22    1
    15    22    23    1
    16    23    24   ar
    17    24    25   ar
    18    25    26    1
    19    25    27   ar
    20    27    28   ar
    21    28    29   ar
    22    29    30    1
    23    13    16    1
    24    16    17   ar
    25    17    18   ar
    26    18    19   ar
    27    19    20   ar
    28    20    21   ar
    29    21    10    1
    30     7     1   ar
    31    29    23   ar
    32    21    16   ar
    33     5     8    1
