@<TRIPOS>MOLECULE
*****
 39 43 0 0 0
SMALL
GASTEIGER

@<TRIPOS>ATOM
      1 C          62.4964   85.9888   18.1686 C.3     1  UNL1        0.1332
      2 N          63.1432   86.3577   16.8665 N.ar    1  UNL1       -0.2975
      3 C          63.6288   85.3987   15.8203 C.ar    1  UNL1        0.2017
      4 N          64.2037   86.1988   14.6893 N.ar    1  UNL1       -0.2134
      5 C          64.0734   87.6523   15.0364 C.ar    1  UNL1        0.1030
      6 C          64.4669   88.8990   14.3010 C.ar    1  UNL1        0.0581
      7 C          64.2050   90.2439   14.9113 C.ar    1  UNL1        0.1469
      8 C          63.5496   90.3421   16.2570 C.ar    1  UNL1        0.0391
      9 C          63.1561   89.0954   16.9923 C.ar    1  UNL1        0.0219
     10 C          63.4180   87.7505   16.3820 C.ar    1  UNL1        0.0801
     11 N          63.5528   83.9024   15.8925 N.pl3   1  UNL1       -0.2839
     12 H          63.5905   83.4492   16.7657 H       1  UNL1        0.1550
     13 C          63.4194   83.0966   14.6344 C.ar    1  UNL1        0.0504
     14 C          62.2232   82.2144   14.4321 C.ar    1  UNL1        0.0146
     15 C          62.0898   81.4087   13.1740 C.ar    1  UNL1        0.0051
     16 C          63.1525   81.4850   12.1182 C.ar    1  UNL1        0.0715
     17 C          64.3487   82.3671   12.3205 C.ar    1  UNL1        0.0051
     18 C          64.4822   83.1730   13.5787 C.ar    1  UNL1        0.0146
     19 C          63.0191   80.6792   10.8600 C.3     1  UNL1        0.4186
     20 F          62.8856   79.8734    9.6019 F       1  UNL1       -0.1659
     21 F          62.5814   79.4925   11.6664 F       1  UNL1       -0.1659
     22 F          63.4568   81.8658   10.0536 F       1  UNL1       -0.1659
     23 O          64.5985   91.4907   14.1759 O.3     1  UNL1       -0.4533
     24 C          64.2977   91.6249   12.7126 C.ar    1  UNL1        0.1485
     25 C          65.0652   92.6052   11.8759 C.ar    1  UNL1        0.0582
     26 C          64.7643   92.7394   10.4125 C.ar    1  UNL1        0.1021
     27 N          63.6960   91.8932    9.7858 N.ar    1  UNL1       -0.2406
     28 C          62.9286   90.9129   10.6225 C.ar    1  UNL1        0.1181
     29 C          63.2294   90.7787   12.0858 C.ar    1  UNL1        0.0597
     30 C          61.8603   90.0667    9.9957 C.ar    1  UNL1        0.1585
     31 N          60.4411   90.4820    9.7438 N.ar    1  UNL1       -0.2240
     32 C          59.7274   89.3286    9.1033 C.ar    1  UNL1        0.1214
     33 C          60.7054   88.2004    8.9594 C.ar    1  UNL1        0.1493
     34 N          62.0237   88.6566    9.5110 N.ar    1  UNL1       -0.3329
     35 H          62.8509   88.1241    9.5482 H       1  UNL1        0.1674
     36 C          60.4161   86.8527    8.3678 C.3     1  UNL1        0.4344
     37 F          60.1267   85.5050    7.7762 F       1  UNL1       -0.1644
     38 F          61.8574   86.4712    8.5318 F       1  UNL1       -0.1644
     39 F          58.9747   87.2342    8.2038 F       1  UNL1       -0.1644
@<TRIPOS>BOND
     1     1     2    1
     2     2     3   ar
     3     3    11    1
     4    11    13    1
     5    13    14   ar
     6    14    15   ar
     7    15    16   ar
     8    16    19    1
     9    19    20    1
    10    19    21    1
    11    19    22    1
    12    16    17   ar
    13    17    18   ar
    14     3     4   ar
    15     4     5   ar
    16     5     6   ar
    17     6     7   ar
    18     7    23    1
    19    23    24    1
    20    24    25   ar
    21    25    26   ar
    22    26    27   ar
    23    27    28   ar
    24    28    30    1
    25    30    31   ar
    26    31    32   ar
    27    32    33   ar
    28    33    36    1
    29    36    37    1
    30    36    38    1
    31    36    39    1
    32    33    34   ar
    33    28    29   ar
    34     7     8   ar
    35     8     9   ar
    36     9    10   ar
    37    10     2   ar
    38    18    13   ar
    39    10     5   ar
    40    29    24   ar
    41    34    30   ar
    42    11    12    1
    43    34    35    1
@<TRIPOS>MOLECULE
*****
 39 43 0 0 0
SMALL
GASTEIGER

@<TRIPOS>ATOM
      1 C          62.8740   85.1473   17.6746 C.3     1  UNL1        0.1332
      2 N          63.4429   85.7488   16.4238 N.ar    1  UNL1       -0.2975
      3 C          64.1260   85.0009   15.3175 C.ar    1  UNL1        0.2017
      4 N          64.5337   85.9938   14.2696 N.ar    1  UNL1       -0.2134
      5 C          64.1025   87.3553   14.7283 C.ar    1  UNL1        0.1030
      6 C          64.2367   88.7133   14.1056 C.ar    1  UNL1        0.0581
      7 C          63.6966   89.9199   14.8144 C.ar    1  UNL1        0.1469
      8 C          63.0224   89.7685   16.1457 C.ar    1  UNL1        0.0391
      9 C          62.8883   88.4105   16.7684 C.ar    1  UNL1        0.0219
     10 C          63.4283   87.2039   16.0597 C.ar    1  UNL1        0.0801
     11 N          64.3604   83.5202   15.2678 N.pl3   1  UNL1       -0.2839
     12 H          64.7720   83.0609   16.0352 H       1  UNL1        0.1550
     13 C          63.9676   82.7391   14.0489 C.ar    1  UNL1        0.0504
     14 C          64.5526   83.0896   12.7128 C.ar    1  UNL1        0.0146
     15 C          64.1598   82.3086   11.4940 C.ar    1  UNL1        0.0051
     16 C          63.1820   81.1771   11.6111 C.ar    1  UNL1        0.0715
     17 C          62.5970   80.8267   12.9471 C.ar    1  UNL1        0.0051
     18 C          62.9898   81.6077   14.1661 C.ar    1  UNL1        0.0146
     19 C          62.7892   80.3961   10.3921 C.3     1  UNL1        0.4186
     20 F          62.3964   79.6151    9.1733 F       1  UNL1       -0.1659
     21 F          62.8416   81.6505    9.5714 F       1  UNL1       -0.1659
     22 F          62.7367   79.1417   11.2128 F       1  UNL1       -0.1659
     23 O          63.8308   91.2780   14.1917 O.3     1  UNL1       -0.4533
     24 C          65.1878   91.8098   13.8372 C.ar    1  UNL1        0.1485
     25 C          66.3199   91.6874   14.8137 C.ar    1  UNL1        0.0582
     26 C          67.6770   92.2191   14.4592 C.ar    1  UNL1        0.1021
     27 N          67.9019   92.8734   13.1282 N.ar    1  UNL1       -0.2406
     28 C          66.7698   92.9958   12.1518 C.ar    1  UNL1        0.1181
     29 C          65.4128   92.4641   12.5063 C.ar    1  UNL1        0.0597
     30 C          66.9948   93.6501   10.8209 C.ar    1  UNL1        0.1585
     31 N          68.2075   93.4890    9.9529 N.ar    1  UNL1       -0.2240
     32 C          68.0086   94.3196    8.7198 C.ar    1  UNL1        0.1214
     33 C          66.6730   94.9942    8.8257 C.ar    1  UNL1        0.1493
     34 N          66.0464   94.5804   10.1243 N.ar    1  UNL1       -0.3329
     35 H          65.1671   94.8687   10.4604 H       1  UNL1        0.1674
     36 C          66.0699   95.9200    7.8112 C.3     1  UNL1        0.4344
     37 F          65.4669   96.8458    6.7968 F       1  UNL1       -0.1644
     38 F          65.4002   96.6891    8.9112 F       1  UNL1       -0.1644
     39 F          66.7397   95.1509    6.7113 F       1  UNL1       -0.1644
@<TRIPOS>BOND
     1     1     2    1
     2     2     3   ar
     3     3    11    1
     4    11    13    1
     5    13    14   ar
     6    14    15   ar
     7    15    16   ar
     8    16    19    1
     9    19    20    1
    10    19    21    1
    11    19    22    1
    12    16    17   ar
    13    17    18   ar
    14     3     4   ar
    15     4     5   ar
    16     5     6   ar
    17     6     7   ar
    18     7    23    1
    19    23    24    1
    20    24    25   ar
    21    25    26   ar
    22    26    27   ar
    23    27    28   ar
    24    28    30    1
    25    30    31   ar
    26    31    32   ar
    27    32    33   ar
    28    33    36    1
    29    36    37    1
    30    36    38    1
    31    36    39    1
    32    33    34   ar
    33    28    29   ar
    34     7     8   ar
    35     8     9   ar
    36     9    10   ar
    37    10     2   ar
    38    18    13   ar
    39    10     5   ar
    40    29    24   ar
    41    34    30   ar
    42    11    12    1
    43    34    35    1
@<TRIPOS>MOLECULE
*****
 39 43 0 0 0
SMALL
GASTEIGER

@<TRIPOS>ATOM
      1 C          62.9186   85.0449   11.2650 C.3     1  UNL1        0.1332
      2 N          63.5160   85.5964   12.5256 N.ar    1  UNL1       -0.2975
      3 C          64.2207   84.8048   13.5870 C.ar    1  UNL1        0.2017
      4 N          64.6536   85.7555   14.6635 N.ar    1  UNL1       -0.2134
      5 C          64.2165   87.1347   14.2673 C.ar    1  UNL1        0.1030
      6 C          64.3679   88.4673   14.9390 C.ar    1  UNL1        0.0581
      7 C          63.8161   89.7015   14.2893 C.ar    1  UNL1        0.1469
      8 C          63.1129   89.6032   12.9680 C.ar    1  UNL1        0.0391
      9 C          62.9616   88.2706   12.2963 C.ar    1  UNL1        0.0219
     10 C          63.5133   87.0363   12.9459 C.ar    1  UNL1        0.0801
     11 N          64.4519   83.3228   13.5743 N.pl3   1  UNL1       -0.2839
     12 H          65.3644   82.9678   13.4716 H       1  UNL1        0.1550
     13 C          63.2928   82.3817   13.7181 C.ar    1  UNL1        0.0504
     14 C          63.3734   80.9990   13.1420 C.ar    1  UNL1        0.0146
     15 C          62.2143   80.0579   13.2857 C.ar    1  UNL1        0.0051
     16 C          60.9746   80.4993   14.0055 C.ar    1  UNL1        0.0715
     17 C          60.8939   81.8819   14.5816 C.ar    1  UNL1        0.0051
     18 C          62.0530   82.8231   14.4378 C.ar    1  UNL1        0.0146
     19 C          59.8154   79.5581   14.1492 C.3     1  UNL1        0.4186
     20 F          58.6564   78.6169   14.2929 F       1  UNL1       -0.1659
     21 F          58.8698   80.7224   14.1489 F       1  UNL1       -0.1659
     22 F          60.7610   78.3937   14.1495 F       1  UNL1       -0.1659
     23 O          63.9674   91.0342   14.9610 O.3     1  UNL1       -0.4533
     24 C          65.1853   91.8707   14.7018 C.ar    1  UNL1        0.1485
     25 C          66.0272   92.3453   15.8489 C.ar    1  UNL1        0.0582
     26 C          67.2450   93.1818   15.5897 C.ar    1  UNL1        0.1021
     27 N          67.6209   93.5437   14.1833 N.ar    1  UNL1       -0.2406
     28 C          66.7790   93.0691   13.0363 C.ar    1  UNL1        0.1181
     29 C          65.5611   92.2326   13.2955 C.ar    1  UNL1        0.0597
     30 C          67.1548   93.4310   11.6299 C.ar    1  UNL1        0.1585
     31 N          67.8598   92.5416   10.6490 N.ar    1  UNL1       -0.2240
     32 C          68.0324   93.3067    9.3704 C.ar    1  UNL1        0.1214
     33 C          67.4340   94.6690    9.5611 C.ar    1  UNL1        0.1493
     34 N          66.8917   94.7458   10.9576 N.ar    1  UNL1       -0.3329
     35 H          66.4420   95.5227   11.3618 H       1  UNL1        0.1674
     36 C          67.3864   95.7625    8.5354 C.3     1  UNL1        0.4344
     37 F          67.3388   96.8559    7.5097 F       1  UNL1       -0.1644
     38 F          67.3422   96.7872    9.6299 F       1  UNL1       -0.1644
     39 F          67.4306   94.7378    7.4409 F       1  UNL1       -0.1644
@<TRIPOS>BOND
     1     1     2    1
     2     2     3   ar
     3     3    11    1
     4    11    13    1
     5    13    14   ar
     6    14    15   ar
     7    15    16   ar
     8    16    19    1
     9    19    20    1
    10    19    21    1
    11    19    22    1
    12    16    17   ar
    13    17    18   ar
    14     3     4   ar
    15     4     5   ar
    16     5     6   ar
    17     6     7   ar
    18     7    23    1
    19    23    24    1
    20    24    25   ar
    21    25    26   ar
    22    26    27   ar
    23    27    28   ar
    24    28    30    1
    25    30    31   ar
    26    31    32   ar
    27    32    33   ar
    28    33    36    1
    29    36    37    1
    30    36    38    1
    31    36    39    1
    32    33    34   ar
    33    28    29   ar
    34     7     8   ar
    35     8     9   ar
    36     9    10   ar
    37    10     2   ar
    38    18    13   ar
    39    10     5   ar
    40    29    24   ar
    41    34    30   ar
    42    11    12    1
    43    34    35    1
@<TRIPOS>MOLECULE
*****
 39 43 0 0 0
SMALL
GASTEIGER

@<TRIPOS>ATOM
      1 C          63.1570   84.8437   12.3870 C.3     1  UNL1        0.1332
      2 N          63.4347   85.5541   13.6786 N.ar    1  UNL1       -0.2975
      3 C          63.6369   84.9054   15.0158 C.ar    1  UNL1        0.2017
      4 N          63.8861   85.9884   16.0234 N.ar    1  UNL1       -0.2134
      5 C          63.8378   87.3064   15.3088 C.ar    1  UNL1        0.1030
      6 C          64.0119   88.7162   15.7905 C.ar    1  UNL1        0.0581
      7 C          63.9070   89.8576   14.8230 C.ar    1  UNL1        0.1469
      8 C          63.6280   89.5892   13.3738 C.ar    1  UNL1        0.0391
      9 C          63.4539   88.1794   12.8921 C.ar    1  UNL1        0.0219
     10 C          63.5589   87.0380   13.8596 C.ar    1  UNL1        0.0801
     11 N          63.5970   83.4324   15.2963 N.pl3   1  UNL1       -0.2839
     12 H          63.7031   83.1038   16.2183 H       1  UNL1        0.1550
     13 C          63.3954   82.4601   14.1721 C.ar    1  UNL1        0.0504
     14 C          64.3749   82.4124   13.0370 C.ar    1  UNL1        0.0146
     15 C          64.1733   81.4401   11.9128 C.ar    1  UNL1        0.0051
     16 C          62.9923   80.5153   11.9237 C.ar    1  UNL1        0.0715
     17 C          62.0128   80.5630   13.0587 C.ar    1  UNL1        0.0051
     18 C          62.2144   81.5353   14.1830 C.ar    1  UNL1        0.0146
     19 C          62.7907   79.5430   10.7994 C.3     1  UNL1        0.4186
     20 F          62.5891   78.5707    9.6751 F       1  UNL1       -0.1659
     21 F          62.4180   78.4777   11.7875 F       1  UNL1       -0.1659
     22 F          63.1633   80.6082    9.8113 F       1  UNL1       -0.1659
     23 O          64.0810   91.2675   15.3047 O.3     1  UNL1       -0.4533
     24 C          65.3199   92.0343   14.9481 C.ar    1  UNL1        0.1485
     25 C          66.2693   92.4684   16.0253 C.ar    1  UNL1        0.0582
     26 C          67.5082   93.2352   15.6687 C.ar    1  UNL1        0.1021
     27 N          67.7977   93.5679   14.2349 N.ar    1  UNL1       -0.2406
     28 C          66.8482   93.1339   13.1579 C.ar    1  UNL1        0.1181
     29 C          65.6094   92.3671   13.5145 C.ar    1  UNL1        0.0597
     30 C          67.1377   93.4666   11.7241 C.ar    1  UNL1        0.1585
     31 N          67.7208   92.5351   10.7032 N.ar    1  UNL1       -0.2240
     32 C          67.8383   93.2821    9.4077 C.ar    1  UNL1        0.1214
     33 C          67.3278   94.6753    9.6280 C.ar    1  UNL1        0.1493
     34 N          66.8948   94.7893   11.0597 N.ar    1  UNL1       -0.3329
     35 H          66.5174   95.5914   11.4880 H       1  UNL1        0.1674
     36 C          67.2619   95.7634    8.5976 C.3     1  UNL1        0.4344
     37 F          67.1960   96.8514    7.5672 F       1  UNL1       -0.1644
     38 F          67.5543   96.7843    9.6569 F       1  UNL1       -0.1644
     39 F          66.9694   94.7425    7.5383 F       1  UNL1       -0.1644
@<TRIPOS>BOND
     1     1     2    1
     2     2     3   ar
     3     3    11    1
     4    11    13    1
     5    13    14   ar
     6    14    15   ar
     7    15    16   ar
     8    16    19    1
     9    19    20    1
    10    19    21    1
    11    19    22    1
    12    16    17   ar
    13    17    18   ar
    14     3     4   ar
    15     4     5   ar
    16     5     6   ar
    17     6     7   ar
    18     7    23    1
    19    23    24    1
    20    24    25   ar
    21    25    26   ar
    22    26    27   ar
    23    27    28   ar
    24    28    30    1
    25    30    31   ar
    26    31    32   ar
    27    32    33   ar
    28    33    36    1
    29    36    37    1
    30    36    38    1
    31    36    39    1
    32    33    34   ar
    33    28    29   ar
    34     7     8   ar
    35     8     9   ar
    36     9    10   ar
    37    10     2   ar
    38    18    13   ar
    39    10     5   ar
    40    29    24   ar
    41    34    30   ar
    42    11    12    1
    43    34    35    1
@<TRIPOS>MOLECULE
*****
 39 43 0 0 0
SMALL
GASTEIGER

@<TRIPOS>ATOM
      1 C          62.7438   84.6515   15.9293 C.3     1  UNL1        0.1332
      2 N          63.1587   85.8008   15.0593 N.ar    1  UNL1       -0.2975
      3 C          63.4866   85.7266   13.5975 C.ar    1  UNL1        0.2017
      4 N          63.8492   87.1060   13.1331 N.ar    1  UNL1       -0.2134
      5 C          63.7453   88.0329   14.3080 C.ar    1  UNL1        0.1030
      6 C          63.9842   89.5071   14.4475 C.ar    1  UNL1        0.0581
      7 C          63.7963   90.1747   15.7776 C.ar    1  UNL1        0.1469
      8 C          63.3696   89.3680   16.9680 C.ar    1  UNL1        0.0391
      9 C          63.1307   87.8938   16.8284 C.ar    1  UNL1        0.0219
     10 C          63.3186   87.2262   15.4984 C.ar    1  UNL1        0.0801
     11 N          63.4572   84.4900   12.7490 N.pl3   1  UNL1       -0.2839
     12 H          63.6793   83.6162   13.1445 H       1  UNL1        0.1550
     13 C          63.0894   84.5846   11.2979 C.ar    1  UNL1        0.0504
     14 C          62.0090   85.5278   10.8580 C.ar    1  UNL1        0.0146
     15 C          61.6412   85.6224    9.4069 C.ar    1  UNL1        0.0051
     16 C          62.3536   84.7740    8.3957 C.ar    1  UNL1        0.0715
     17 C          63.4339   83.8309    8.8355 C.ar    1  UNL1        0.0051
     18 C          63.8018   83.7362   10.2867 C.ar    1  UNL1        0.0146
     19 C          61.9857   84.8687    6.9445 C.3     1  UNL1        0.4186
     20 F          61.6179   84.9634    5.4934 F       1  UNL1       -0.1659
     21 F          60.5802   85.2293    7.3243 F       1  UNL1       -0.1659
     22 F          63.3913   84.5081    6.5647 F       1  UNL1       -0.1659
     23 O          64.0352   91.6490   15.9172 O.3     1  UNL1       -0.4533
     24 C          65.3258   92.2479   15.4424 C.ar    1  UNL1        0.1485
     25 C          66.4259   92.5321   16.4218 C.ar    1  UNL1        0.0582
     26 C          67.7166   93.1310   15.9469 C.ar    1  UNL1        0.1021
     27 N          67.9072   93.4458   14.4927 N.ar    1  UNL1       -0.2406
     28 C          66.8071   93.1616   13.5134 C.ar    1  UNL1        0.1181
     29 C          65.5165   92.5627   13.9882 C.ar    1  UNL1        0.0597
     30 C          66.9977   93.4763   12.0592 C.ar    1  UNL1        0.1585
     31 N          67.4346   92.5105   10.9979 N.ar    1  UNL1       -0.2240
     32 C          67.4918   93.2495    9.6938 C.ar    1  UNL1        0.1214
     33 C          67.0901   94.6720    9.9491 C.ar    1  UNL1        0.1493
     34 N          66.7848   94.8122   11.4110 N.ar    1  UNL1       -0.3329
     35 H          66.4954   95.6363   11.8654 H       1  UNL1        0.1674
     36 C          67.0082   95.7628    8.9227 C.3     1  UNL1        0.4344
     37 F          66.9263   96.8536    7.8963 F       1  UNL1       -0.1644
     38 F          66.8205   94.7355    7.8460 F       1  UNL1       -0.1644
     39 F          67.1960   96.7901    9.9994 F       1  UNL1       -0.1644
@<TRIPOS>BOND
     1     1     2    1
     2     2     3   ar
     3     3    11    1
     4    11    13    1
     5    13    14   ar
     6    14    15   ar
     7    15    16   ar
     8    16    19    1
     9    19    20    1
    10    19    21    1
    11    19    22    1
    12    16    17   ar
    13    17    18   ar
    14     3     4   ar
    15     4     5   ar
    16     5     6   ar
    17     6     7   ar
    18     7    23    1
    19    23    24    1
    20    24    25   ar
    21    25    26   ar
    22    26    27   ar
    23    27    28   ar
    24    28    30    1
    25    30    31   ar
    26    31    32   ar
    27    32    33   ar
    28    33    36    1
    29    36    37    1
    30    36    38    1
    31    36    39    1
    32    33    34   ar
    33    28    29   ar
    34     7     8   ar
    35     8     9   ar
    36     9    10   ar
    37    10     2   ar
    38    18    13   ar
    39    10     5   ar
    40    29    24   ar
    41    34    30   ar
    42    11    12    1
    43    34    35    1
@<TRIPOS>MOLECULE
*****
 39 43 0 0 0
SMALL
GASTEIGER

@<TRIPOS>ATOM
      1 C          63.1436   87.5114   12.3100 C.3     1  UNL1        0.1332
      2 N          62.2271   88.5119   11.6704 N.ar    1  UNL1       -0.2975
      3 C          61.8786   89.8643   12.2176 C.ar    1  UNL1        0.2017
      4 N          60.9343   90.5238   11.2567 N.ar    1  UNL1       -0.2134
      5 C          60.6993   89.5790   10.1155 C.ar    1  UNL1        0.1030
      6 C          59.8610   89.6903    8.8767 C.ar    1  UNL1        0.0581
      7 C          59.8218   88.5582    7.8935 C.ar    1  UNL1        0.1469
      8 C          60.6208   87.3147    8.1492 C.ar    1  UNL1        0.0391
      9 C          61.4591   87.2034    9.3881 C.ar    1  UNL1        0.0219
     10 C          61.4984   88.3355   10.3712 C.ar    1  UNL1        0.0801
     11 N          62.3852   90.4536   13.5006 N.pl3   1  UNL1       -0.2839
     12 H          61.7735   90.5738   14.2625 H       1  UNL1        0.1550
     13 C          63.8239   90.8600   13.6226 C.ar    1  UNL1        0.0504
     14 C          64.6103   90.4784   14.8417 C.ar    1  UNL1        0.0146
     15 C          66.0490   90.8848   14.9637 C.ar    1  UNL1        0.0051
     16 C          66.7014   91.6727   13.8667 C.ar    1  UNL1        0.0715
     17 C          65.9152   92.0543   12.6476 C.ar    1  UNL1        0.0051
     18 C          64.4764   91.6479   12.5255 C.ar    1  UNL1        0.0146
     19 C          68.1402   92.0791   13.9887 C.3     1  UNL1        0.4186
     20 F          69.5790   92.4854   14.1107 F       1  UNL1       -0.1659
     21 F          67.9189   92.4298   15.4302 F       1  UNL1       -0.1659
     22 F          68.3615   91.7284   12.5472 F       1  UNL1       -0.1659
     23 O          58.9834   88.6695    6.6546 O.3     1  UNL1       -0.4533
     24 C          59.0147   89.9276    5.8384 C.ar    1  UNL1        0.1485
     25 C          57.8015   90.8071    5.7692 C.ar    1  UNL1        0.0582
     26 C          57.8328   92.0652    4.9530 C.ar    1  UNL1        0.1021
     27 N          59.0773   92.4438    4.2060 N.ar    1  UNL1       -0.2406
     28 C          60.2904   91.5643    4.2752 C.ar    1  UNL1        0.1181
     29 C          60.2591   90.3062    5.0914 C.ar    1  UNL1        0.0597
     30 C          61.5349   91.9430    3.5281 C.ar    1  UNL1        0.1585
     31 N          62.8684   91.2647    3.6355 N.ar    1  UNL1       -0.2240
     32 C          63.8220   91.9689    2.7163 C.ar    1  UNL1        0.1214
     33 C          63.0777   93.0824    2.0408 C.ar    1  UNL1        0.1493
     34 N          61.6641   93.0664    2.5426 N.ar    1  UNL1       -0.3329
     35 H          60.9471   93.6846    2.2725 H       1  UNL1        0.1674
     36 C          63.6470   94.0432    1.0395 C.3     1  UNL1        0.4344
     37 F          64.2162   95.0040    0.0381 F       1  UNL1       -0.1644
     38 F          62.8260   93.4037   -0.0408 F       1  UNL1       -0.1644
     39 F          64.4680   94.6826    2.1197 F       1  UNL1       -0.1644
@<TRIPOS>BOND
     1     1     2    1
     2     2     3   ar
     3     3    11    1
     4    11    13    1
     5    13    14   ar
     6    14    15   ar
     7    15    16   ar
     8    16    19    1
     9    19    20    1
    10    19    21    1
    11    19    22    1
    12    16    17   ar
    13    17    18   ar
    14     3     4   ar
    15     4     5   ar
    16     5     6   ar
    17     6     7   ar
    18     7    23    1
    19    23    24    1
    20    24    25   ar
    21    25    26   ar
    22    26    27   ar
    23    27    28   ar
    24    28    30    1
    25    30    31   ar
    26    31    32   ar
    27    32    33   ar
    28    33    36    1
    29    36    37    1
    30    36    38    1
    31    36    39    1
    32    33    34   ar
    33    28    29   ar
    34     7     8   ar
    35     8     9   ar
    36     9    10   ar
    37    10     2   ar
    38    18    13   ar
    39    10     5   ar
    40    29    24   ar
    41    34    30   ar
    42    11    12    1
    43    34    35    1
@<TRIPOS>MOLECULE
*****
 39 43 0 0 0
SMALL
GASTEIGER

@<TRIPOS>ATOM
      1 C          60.0308   90.3620    9.5217 C.3     1  UNL1        0.1332
      2 N          60.1341   88.9984    8.9053 N.ar    1  UNL1       -0.2975
      3 C          59.4264   88.5350    7.6666 C.ar    1  UNL1        0.2017
      4 N          59.8181   87.1090    7.4151 N.ar    1  UNL1       -0.2134
      5 C          60.7678   86.6912    8.4983 C.ar    1  UNL1        0.1030
      6 C          61.4800   85.3983    8.7651 C.ar    1  UNL1        0.0581
      7 C          62.3875   85.2732    9.9528 C.ar    1  UNL1        0.1469
      8 C          62.5828   86.4409   10.8738 C.ar    1  UNL1        0.0391
      9 C          61.8706   87.7338   10.6071 C.ar    1  UNL1        0.0219
     10 C          60.9631   87.8590    9.4194 C.ar    1  UNL1        0.0801
     11 N          58.4912   89.3537    6.8268 N.pl3   1  UNL1       -0.2839
     12 H          57.5184   89.2801    6.9591 H       1  UNL1        0.1550
     13 C          59.0382   90.2846    5.7856 C.ar    1  UNL1        0.0504
     14 C          58.1203   91.2283    5.0666 C.ar    1  UNL1        0.0146
     15 C          58.6673   92.1592    4.0254 C.ar    1  UNL1        0.0051
     16 C          60.1321   92.1463    3.7030 C.ar    1  UNL1        0.0715
     17 C          61.0501   91.2027    4.4219 C.ar    1  UNL1        0.0051
     18 C          60.5031   90.2717    5.4632 C.ar    1  UNL1        0.0146
     19 C          60.6791   93.0773    2.6617 C.3     1  UNL1        0.4186
     20 F          61.2261   94.0081    1.6204 F       1  UNL1       -0.1659
     21 F          59.2825   93.4508    2.2619 F       1  UNL1       -0.1659
     22 F          62.0757   92.7037    3.0614 F       1  UNL1       -0.1659
     23 O          63.0998   83.9803   10.2196 O.3     1  UNL1       -0.4533
     24 C          63.3005   83.5118   11.6304 C.ar    1  UNL1        0.1485
     25 C          63.6953   82.0899   11.8995 C.ar    1  UNL1        0.0582
     26 C          63.8960   81.6215   13.3102 C.ar    1  UNL1        0.1021
     27 N          63.7019   82.5749   14.4519 N.ar    1  UNL1       -0.2406
     28 C          63.3072   83.9968   14.1827 C.ar    1  UNL1        0.1181
     29 C          63.1064   84.4652   12.7720 C.ar    1  UNL1        0.0597
     30 C          63.1131   84.9503   15.3244 C.ar    1  UNL1        0.1585
     31 N          62.5567   84.6075   16.6746 N.ar    1  UNL1       -0.2240
     32 C          62.5411   85.8593   17.5009 C.ar    1  UNL1        0.1214
     33 C          63.0878   86.9757   16.6614 C.ar    1  UNL1        0.1493
     34 N          63.4413   86.4139   15.3162 N.ar    1  UNL1       -0.3329
     35 H          63.8219   86.9173   14.5606 H       1  UNL1        0.1674
     36 C          63.2521   88.4033   17.0915 C.3     1  UNL1        0.4344
     37 F          63.4165   89.8309   17.5216 F       1  UNL1       -0.1644
     38 F          63.4659   88.8090   15.6633 F       1  UNL1       -0.1644
     39 F          63.0384   87.9976   18.5197 F       1  UNL1       -0.1644
@<TRIPOS>BOND
     1     1     2    1
     2     2     3   ar
     3     3    11    1
     4    11    13    1
     5    13    14   ar
     6    14    15   ar
     7    15    16   ar
     8    16    19    1
     9    19    20    1
    10    19    21    1
    11    19    22    1
    12    16    17   ar
    13    17    18   ar
    14     3     4   ar
    15     4     5   ar
    16     5     6   ar
    17     6     7   ar
    18     7    23    1
    19    23    24    1
    20    24    25   ar
    21    25    26   ar
    22    26    27   ar
    23    27    28   ar
    24    28    30    1
    25    30    31   ar
    26    31    32   ar
    27    32    33   ar
    28    33    36    1
    29    36    37    1
    30    36    38    1
    31    36    39    1
    32    33    34   ar
    33    28    29   ar
    34     7     8   ar
    35     8     9   ar
    36     9    10   ar
    37    10     2   ar
    38    18    13   ar
    39    10     5   ar
    40    29    24   ar
    41    34    30   ar
    42    11    12    1
    43    34    35    1
@<TRIPOS>MOLECULE
*****
 39 43 0 0 0
SMALL
GASTEIGER

@<TRIPOS>ATOM
      1 C          62.7049   84.1008   16.5330 C.3     1  UNL1        0.1332
      2 N          63.5344   85.1674   15.8817 N.ar    1  UNL1       -0.2975
      3 C          64.7263   84.9417   14.9994 C.ar    1  UNL1        0.2017
      4 N          65.2461   86.2819   14.5708 N.ar    1  UNL1       -0.2134
      5 C          64.3755   87.3359   15.1882 C.ar    1  UNL1        0.1030
      6 C          64.4094   88.8338   15.1172 C.ar    1  UNL1        0.0581
      7 C          63.3854   89.6429   15.8565 C.ar    1  UNL1        0.1469
      8 C          62.3274   88.9542   16.6667 C.ar    1  UNL1        0.0391
      9 C          62.2935   87.4563   16.7376 C.ar    1  UNL1        0.0219
     10 C          63.3176   86.6471   15.9983 C.ar    1  UNL1        0.0801
     11 N          65.2980   83.6097   14.6136 N.pl3   1  UNL1       -0.2839
     12 H          66.1006   83.2677   15.0697 H       1  UNL1        0.1550
     13 C          64.6469   82.7988   13.5326 C.ar    1  UNL1        0.0504
     14 C          63.8314   81.5912   13.8890 C.ar    1  UNL1        0.0146
     15 C          63.1803   80.7803   12.8081 C.ar    1  UNL1        0.0051
     16 C          63.3446   81.1769   11.3708 C.ar    1  UNL1        0.0715
     17 C          64.1600   82.3844   11.0144 C.ar    1  UNL1        0.0051
     18 C          64.8111   83.1954   12.0954 C.ar    1  UNL1        0.0146
     19 C          62.6934   80.3659   10.2898 C.3     1  UNL1        0.4186
     20 F          62.0422   79.5550    9.2089 F       1  UNL1       -0.1659
     21 F          62.5670   79.2079   11.2348 F       1  UNL1       -0.1659
     22 F          62.8198   81.5240    9.3449 F       1  UNL1       -0.1659
     23 O          63.4192   91.1409   15.7856 O.3     1  UNL1       -0.4533
     24 C          64.6941   91.8462   15.4291 C.ar    1  UNL1        0.1485
     25 C          65.6520   92.2554   16.5085 C.ar    1  UNL1        0.0582
     26 C          66.9269   92.9608   16.1520 C.ar    1  UNL1        0.1021
     27 N          67.2440   93.2569   14.7160 N.ar    1  UNL1       -0.2406
     28 C          66.2861   92.8477   13.6367 C.ar    1  UNL1        0.1181
     29 C          65.0112   92.1424   13.9932 C.ar    1  UNL1        0.0597
     30 C          66.6031   93.1439   12.2008 C.ar    1  UNL1        0.1585
     31 N          66.0150   94.2519   11.3784 N.ar    1  UNL1       -0.2240
     32 C          66.6123   94.1768   10.0045 C.ar    1  UNL1        0.1214
     33 C          67.5696   93.0222    9.9778 C.ar    1  UNL1        0.1493
     34 N          67.5640   92.3838   11.3352 N.ar    1  UNL1       -0.3329
     35 H          68.0972   91.6032   11.6098 H       1  UNL1        0.1674
     36 C          68.3888   92.5832    8.8004 C.3     1  UNL1        0.4344
     37 F          69.2080   92.1442    7.6230 F       1  UNL1       -0.1644
     38 F          68.2939   93.9630    8.2198 F       1  UNL1       -0.1644
     39 F          68.4838   91.2034    9.3810 F       1  UNL1       -0.1644
@<TRIPOS>BOND
     1     1     2    1
     2     2     3   ar
     3     3    11    1
     4    11    13    1
     5    13    14   ar
     6    14    15   ar
     7    15    16   ar
     8    16    19    1
     9    19    20    1
    10    19    21    1
    11    19    22    1
    12    16    17   ar
    13    17    18   ar
    14     3     4   ar
    15     4     5   ar
    16     5     6   ar
    17     6     7   ar
    18     7    23    1
    19    23    24    1
    20    24    25   ar
    21    25    26   ar
    22    26    27   ar
    23    27    28   ar
    24    28    30    1
    25    30    31   ar
    26    31    32   ar
    27    32    33   ar
    28    33    36    1
    29    36    37    1
    30    36    38    1
    31    36    39    1
    32    33    34   ar
    33    28    29   ar
    34     7     8   ar
    35     8     9   ar
    36     9    10   ar
    37    10     2   ar
    38    18    13   ar
    39    10     5   ar
    40    29    24   ar
    41    34    30   ar
    42    11    12    1
    43    34    35    1
@<TRIPOS>MOLECULE
*****
 39 43 0 0 0
SMALL
GASTEIGER

@<TRIPOS>ATOM
      1 C          61.5893   88.2036    9.7801 C.3     1  UNL1        0.1332
      2 N          62.3526   87.8731   11.0284 N.ar    1  UNL1       -0.2975
      3 C          62.7358   86.4981   11.4894 C.ar    1  UNL1        0.2017
      4 N          63.4867   86.6348   12.7807 N.ar    1  UNL1       -0.2134
      5 C          63.5676   88.0942   13.1177 C.ar    1  UNL1        0.1030
      6 C          64.1889   88.8251   14.2708 C.ar    1  UNL1        0.0581
      7 C          64.1093   90.3213   14.3409 C.ar    1  UNL1        0.1469
      8 C          63.4084   91.0866   13.2578 C.ar    1  UNL1        0.0391
      9 C          62.7870   90.3557   12.1047 C.ar    1  UNL1        0.0219
     10 C          62.8667   88.8595   12.0347 C.ar    1  UNL1        0.0801
     11 N          62.4230   85.2122   10.7832 N.pl3   1  UNL1       -0.2839
     12 H          62.1639   85.2226    9.8335 H       1  UNL1        0.1550
     13 C          62.5050   83.9105   11.5240 C.ar    1  UNL1        0.0504
     14 C          62.8407   82.6479   10.7869 C.ar    1  UNL1        0.0146
     15 C          62.9227   81.3462   11.5276 C.ar    1  UNL1        0.0051
     16 C          62.6691   81.3070   13.0055 C.ar    1  UNL1        0.0715
     17 C          62.3334   82.5695   13.7426 C.ar    1  UNL1        0.0051
     18 C          62.2514   83.8713   13.0018 C.ar    1  UNL1        0.0146
     19 C          62.7511   80.0052   13.7463 C.3     1  UNL1        0.4186
     20 F          62.8331   78.7035   14.4870 F       1  UNL1       -0.1659
     21 F          61.3291   79.7046   13.3756 F       1  UNL1       -0.1659
     22 F          64.1731   80.3058   14.1170 F       1  UNL1       -0.1659
     23 O          64.7307   91.0523   15.4940 O.3     1  UNL1       -0.4533
     24 C          65.7522   92.1213   15.2415 C.ar    1  UNL1        0.1485
     25 C          66.8576   92.3507   16.2293 C.ar    1  UNL1        0.0582
     26 C          67.8791   93.4197   15.9768 C.ar    1  UNL1        0.1021
     27 N          67.7952   94.2593   14.7366 N.ar    1  UNL1       -0.2406
     28 C          66.6899   94.0299   13.7489 C.ar    1  UNL1        0.1181
     29 C          65.6684   92.9609   14.0014 C.ar    1  UNL1        0.0597
     30 C          66.6060   94.8695   12.5087 C.ar    1  UNL1        0.1585
     31 N          66.2098   96.3149   12.4476 N.ar    1  UNL1       -0.2240
     32 C          66.2626   96.7498   11.0130 C.ar    1  UNL1        0.1214
     33 C          66.6913   95.5730   10.1874 C.ar    1  UNL1        0.1493
     34 N          66.9036   94.4109   11.1118 N.ar    1  UNL1       -0.3329
     35 H          67.1882   93.5061   10.8481 H       1  UNL1        0.1674
     36 C          66.8755   95.5606    8.6988 C.3     1  UNL1        0.4344
     37 F          67.0596   95.5482    7.2102 F       1  UNL1       -0.1644
     38 F          68.0644   94.6592    8.8534 F       1  UNL1       -0.1644
     39 F          65.6865   96.4620    8.5442 F       1  UNL1       -0.1644
@<TRIPOS>BOND
     1     1     2    1
     2     2     3   ar
     3     3    11    1
     4    11    13    1
     5    13    14   ar
     6    14    15   ar
     7    15    16   ar
     8    16    19    1
     9    19    20    1
    10    19    21    1
    11    19    22    1
    12    16    17   ar
    13    17    18   ar
    14     3     4   ar
    15     4     5   ar
    16     5     6   ar
    17     6     7   ar
    18     7    23    1
    19    23    24    1
    20    24    25   ar
    21    25    26   ar
    22    26    27   ar
    23    27    28   ar
    24    28    30    1
    25    30    31   ar
    26    31    32   ar
    27    32    33   ar
    28    33    36    1
    29    36    37    1
    30    36    38    1
    31    36    39    1
    32    33    34   ar
    33    28    29   ar
    34     7     8   ar
    35     8     9   ar
    36     9    10   ar
    37    10     2   ar
    38    18    13   ar
    39    10     5   ar
    40    29    24   ar
    41    34    30   ar
    42    11    12    1
    43    34    35    1
