@<TRIPOS>MOLECULE
*****
 33 37 0 0 0
SMALL
GASTEIGER

@<TRIPOS>ATOM
      1 C          62.9943   86.2868   12.4790 C.2     1  UNL1        0.2506
      2 O          63.4980   87.1895   13.5660 O.2     1  UNL1       -0.2699
      3 N          62.1905   86.8531   11.3463 N.am    1  UNL1       -0.2723
      4 C          61.6868   85.9504   10.2593 C.3     1  UNL1        0.1257
      5 C          60.8829   86.5167    9.1265 C.3     1  UNL1        0.1637
      6 O          60.5827   87.9856    9.0807 O.3     1  UNL1       -0.3502
      7 C          61.0864   88.8883   10.1677 C.3     1  UNL1        0.1622
      8 C          61.8903   88.3221   11.3004 C.3     1  UNL1        0.1096
      9 C          64.0997   81.8411   10.0267 C.3     1  UNL1        0.0310
     10 C          63.8472   82.5950   11.2987 C.ar    1  UNL1       -0.0216
     11 C          63.8949   81.8800   12.6164 C.ar    1  UNL1       -0.0026
     12 C          63.6424   82.6339   13.8884 C.ar    1  UNL1        0.0207
     13 C          63.3422   84.1029   13.8426 C.ar    1  UNL1        0.1072
     14 C          63.2945   84.8178   12.5248 C.ar    1  UNL1        0.0726
     15 C          63.5470   84.0639   11.2529 C.ar    1  UNL1        0.0018
     16 N          63.0897   84.8568   15.1145 N.ar    1  UNL1       -0.1477
     17 N          64.1242   85.5579   15.9441 N.ar    1  UNL1       -0.1447
     18 C          63.4322   86.1764   17.1225 C.ar    1  UNL1        0.1446
     19 C          61.9700   85.8575   17.0212 C.ar    1  UNL1        0.1446
     20 N          61.7583   85.0419   15.7802 N.ar    1  UNL1       -0.1447
     21 C          62.3940   89.2247   12.3874 C.3     1  UNL1        0.0487
     22 C          63.3865   90.3028   12.0671 C.ar    1  UNL1       -0.0203
     23 C          63.3449   90.9885   10.7337 C.ar    1  UNL1       -0.0042
     24 C          64.3374   92.0666   10.4134 C.ar    1  UNL1       -0.0002
     25 C          65.3716   92.4590   11.4266 C.ar    1  UNL1        0.0030
     26 C          65.4132   91.7733   12.7601 C.ar    1  UNL1        0.0355
     27 C          64.4206   90.6952   13.0803 C.ar    1  UNL1       -0.0012
     28 C          66.4473   92.1657   13.7733 C.ar    1  UNL1        0.1622
     29 N          66.0234   92.6888   15.1137 N.ar    1  UNL1       -0.2250
     30 C          67.0575   93.0812   16.1269 C.ar    1  UNL1        0.1022
     31 C          68.5156   92.9505   15.7997 C.ar    1  UNL1        0.0414
     32 C          68.9395   92.4275   14.4593 C.ar    1  UNL1        0.1022
     33 N          67.9053   92.0350   13.4461 N.ar    1  UNL1       -0.2250
@<TRIPOS>BOND
     1     9    10    1
     2    10    11   ar
     3    11    12   ar
     4    12    13   ar
     5    13    16    1
     6    16    17   ar
     7    17    18   ar
     8    18    19   ar
     9    19    20   ar
    10    13    14   ar
    11    14     1    1
    12     1     2    2
    13     1     3   am
    14     3     4    1
    15     4     5    1
    16     5     6    1
    17     6     7    1
    18     7     8    1
    19     8    21    1
    20    21    22    1
    21    22    23   ar
    22    23    24   ar
    23    24    25   ar
    24    25    26   ar
    25    26    28    1
    26    28    29   ar
    27    29    30   ar
    28    30    31   ar
    29    31    32   ar
    30    32    33   ar
    31    26    27   ar
    32    14    15   ar
    33    15    10   ar
    34    20    16   ar
    35     8     3    1
    36    27    22   ar
    37    33    28   ar
@<TRIPOS>MOLECULE
*****
 33 37 0 0 0
SMALL
GASTEIGER

@<TRIPOS>ATOM
      1 C          62.6420   88.4833   11.5798 C.2     1  UNL1        0.2506
      2 O          62.6035   89.9828   11.5876 O.2     1  UNL1       -0.2699
      3 N          63.3099   87.7443   12.7013 N.am    1  UNL1       -0.2723
      4 C          63.3483   86.2448   12.6934 C.3     1  UNL1        0.1257
      5 C          64.0163   85.5059   13.8150 C.3     1  UNL1        0.1637
      6 O          64.6457   86.2664   14.9443 O.3     1  UNL1       -0.3502
      7 C          64.6072   87.7658   14.9521 C.3     1  UNL1        0.1622
      8 C          63.9394   88.5048   13.8307 C.3     1  UNL1        0.1096
      9 C          62.9944   84.9515    7.7848 C.3     1  UNL1        0.0310
     10 C          62.1888   85.9569    8.5529 C.ar    1  UNL1       -0.0216
     11 C          60.7537   86.2019    8.1917 C.ar    1  UNL1       -0.0026
     12 C          59.9480   87.2073    8.9598 C.ar    1  UNL1        0.0207
     13 C          60.5774   87.9678   10.0892 C.ar    1  UNL1        0.1072
     14 C          62.0125   87.7228   10.4504 C.ar    1  UNL1        0.0726
     15 C          62.8182   86.7174    9.6822 C.ar    1  UNL1        0.0018
     16 N          59.7718   88.9732   10.8573 N.ar    1  UNL1       -0.1477
     17 N          59.5785   90.4146   10.4898 N.ar    1  UNL1       -0.1447
     18 C          58.7052   91.0460   11.5332 C.ar    1  UNL1        0.1446
     19 C          58.3587   89.9948   12.5456 C.ar    1  UNL1        0.1446
     20 N          59.0178   88.7138   12.1279 N.ar    1  UNL1       -0.1447
     21 C          63.9009   90.0043   13.8385 C.3     1  UNL1        0.0487
     22 C          65.1789   90.7876   13.7832 C.ar    1  UNL1       -0.0203
     23 C          66.1356   90.7443   14.9376 C.ar    1  UNL1       -0.0042
     24 C          67.4137   91.5277   14.8824 C.ar    1  UNL1       -0.0002
     25 C          67.7350   92.3543   13.6726 C.ar    1  UNL1        0.0030
     26 C          66.7782   92.3976   12.5181 C.ar    1  UNL1        0.0355
     27 C          65.5002   91.6142   12.5734 C.ar    1  UNL1       -0.0012
     28 C          67.0995   93.2242   11.3084 C.ar    1  UNL1        0.1622
     29 N          67.8605   92.6183   10.1666 N.ar    1  UNL1       -0.2250
     30 C          68.1818   93.4449    8.9568 C.ar    1  UNL1        0.1022
     31 C          67.7420   94.8774    8.8889 C.ar    1  UNL1        0.0414
     32 C          66.9810   95.4833   10.0307 C.ar    1  UNL1        0.1022
     33 N          66.6597   94.6566   11.2405 N.ar    1  UNL1       -0.2250
@<TRIPOS>BOND
     1     9    10    1
     2    10    11   ar
     3    11    12   ar
     4    12    13   ar
     5    13    16    1
     6    16    17   ar
     7    17    18   ar
     8    18    19   ar
     9    19    20   ar
    10    13    14   ar
    11    14     1    1
    12     1     2    2
    13     1     3   am
    14     3     4    1
    15     4     5    1
    16     5     6    1
    17     6     7    1
    18     7     8    1
    19     8    21    1
    20    21    22    1
    21    22    23   ar
    22    23    24   ar
    23    24    25   ar
    24    25    26   ar
    25    26    28    1
    26    28    29   ar
    27    29    30   ar
    28    30    31   ar
    29    31    32   ar
    30    32    33   ar
    31    26    27   ar
    32    14    15   ar
    33    15    10   ar
    34    20    16   ar
    35     8     3    1
    36    27    22   ar
    37    33    28   ar
@<TRIPOS>MOLECULE
*****
 33 37 0 0 0
SMALL
GASTEIGER

@<TRIPOS>ATOM
      1 C          63.3400   86.9859   13.1032 C.2     1  UNL1        0.2506
      2 O          63.8184   87.6340   14.3686 O.2     1  UNL1       -0.2699
      3 N          62.8061   87.8296   11.9838 N.am    1  UNL1       -0.2723
      4 C          62.3278   87.1814   10.7185 C.3     1  UNL1        0.1257
      5 C          61.7938   88.0252    9.5991 C.3     1  UNL1        0.1637
      6 O          61.7383   89.5170    9.7450 O.3     1  UNL1       -0.3502
      7 C          62.2166   90.1652   11.0104 C.3     1  UNL1        0.1622
      8 C          62.7505   89.3215   12.1298 C.3     1  UNL1        0.1096
      9 C          63.9492   82.7759   10.1190 C.3     1  UNL1        0.0310
     10 C          63.7002   83.3891   11.4652 C.ar    1  UNL1       -0.0216
     11 C          63.5069   82.5104   12.6654 C.ar    1  UNL1       -0.0026
     12 C          63.2579   83.1235   14.0115 C.ar    1  UNL1        0.0207
     13 C          63.2023   84.6153   14.1575 C.ar    1  UNL1        0.1072
     14 C          63.3957   85.4940   12.9573 C.ar    1  UNL1        0.0726
     15 C          63.6446   84.8809   11.6112 C.ar    1  UNL1        0.0018
     16 N          62.9533   85.2284   15.5036 N.ar    1  UNL1       -0.1477
     17 N          64.0019   85.7315   16.4509 N.ar    1  UNL1       -0.1447
     18 C          63.3087   86.2601   17.6716 C.ar    1  UNL1        0.1446
     19 C          61.8316   86.0837   17.4787 C.ar    1  UNL1        0.1446
     20 N          61.6120   85.4461   16.1388 N.ar    1  UNL1       -0.1447
     21 C          63.2289   89.9696   13.3951 C.3     1  UNL1        0.0487
     22 C          64.5120   90.7465   13.4012 C.ar    1  UNL1       -0.0203
     23 C          65.4573   90.6240   14.5593 C.ar    1  UNL1       -0.0042
     24 C          66.7405   91.4009   14.5655 C.ar    1  UNL1       -0.0002
     25 C          67.0782   92.3002   13.4135 C.ar    1  UNL1        0.0030
     26 C          66.1328   92.4227   12.2554 C.ar    1  UNL1        0.0355
     27 C          64.8497   91.6458   12.2493 C.ar    1  UNL1       -0.0012
     28 C          66.4705   93.3221   11.1034 C.ar    1  UNL1        0.1622
     29 N          65.6984   94.5904   10.8907 N.ar    1  UNL1       -0.2250
     30 C          66.0361   95.4898    9.7387 C.ar    1  UNL1        0.1022
     31 C          67.1460   95.1208    8.7994 C.ar    1  UNL1        0.0414
     32 C          67.9180   93.8525    9.0122 C.ar    1  UNL1        0.1022
     33 N          67.5803   92.9532   10.1642 N.ar    1  UNL1       -0.2250
@<TRIPOS>BOND
     1     9    10    1
     2    10    11   ar
     3    11    12   ar
     4    12    13   ar
     5    13    16    1
     6    16    17   ar
     7    17    18   ar
     8    18    19   ar
     9    19    20   ar
    10    13    14   ar
    11    14     1    1
    12     1     2    2
    13     1     3   am
    14     3     4    1
    15     4     5    1
    16     5     6    1
    17     6     7    1
    18     7     8    1
    19     8    21    1
    20    21    22    1
    21    22    23   ar
    22    23    24   ar
    23    24    25   ar
    24    25    26   ar
    25    26    28    1
    26    28    29   ar
    27    29    30   ar
    28    30    31   ar
    29    31    32   ar
    30    32    33   ar
    31    26    27   ar
    32    14    15   ar
    33    15    10   ar
    34    20    16   ar
    35     8     3    1
    36    27    22   ar
    37    33    28   ar
@<TRIPOS>MOLECULE
*****
 33 37 0 0 0
SMALL
GASTEIGER

@<TRIPOS>ATOM
      1 C          62.7728   87.3436   11.8065 C.2     1  UNL1        0.2506
      2 O          63.4352   87.5118   13.1418 O.2     1  UNL1       -0.2699
      3 N          61.9703   88.4672   11.2205 N.am    1  UNL1       -0.2723
      4 C          61.3079   88.2989    9.8852 C.3     1  UNL1        0.1257
      5 C          60.5054   89.4226    9.2992 C.3     1  UNL1        0.1637
      6 O          60.3653   90.7144   10.0484 O.3     1  UNL1       -0.3502
      7 C          61.0277   90.8827   11.3837 C.3     1  UNL1        0.1622
      8 C          61.8302   89.7591   11.9697 C.3     1  UNL1        0.1096
      9 C          62.8219   84.7276    7.3172 C.3     1  UNL1        0.0310
     10 C          62.9375   84.7437    8.8126 C.ar    1  UNL1       -0.0216
     11 C          63.1932   83.4679    9.5588 C.ar    1  UNL1       -0.0026
     12 C          63.3088   83.4839   11.0543 C.ar    1  UNL1        0.0207
     13 C          63.1686   84.7758   11.8035 C.ar    1  UNL1        0.1072
     14 C          62.9129   86.0516   11.0573 C.ar    1  UNL1        0.0726
     15 C          62.7974   86.0355    9.5618 C.ar    1  UNL1        0.0018
     16 N          63.2842   84.7919   13.2990 N.ar    1  UNL1       -0.1477
     17 N          64.5607   84.8580   14.0840 N.ar    1  UNL1       -0.1447
     18 C          64.2090   84.8516   15.5422 C.ar    1  UNL1        0.1446
     19 C          62.7152   84.7815   15.6584 C.ar    1  UNL1        0.1446
     20 N          62.1436   84.7446   14.2720 N.ar    1  UNL1       -0.1447
     21 C          62.4926   89.9274   13.3050 C.3     1  UNL1        0.0487
     22 C          63.8225   90.6144   13.4012 C.ar    1  UNL1       -0.0203
     23 C          64.6574   90.4623   14.6380 C.ar    1  UNL1       -0.0042
     24 C          65.9874   91.1493   14.7343 C.ar    1  UNL1       -0.0002
     25 C          66.4824   91.9884   13.5937 C.ar    1  UNL1        0.0030
     26 C          65.6474   92.1405   12.3569 C.ar    1  UNL1        0.0355
     27 C          64.3174   91.4535   12.2606 C.ar    1  UNL1       -0.0012
     28 C          66.1423   92.9796   11.2163 C.ar    1  UNL1        0.1622
     29 N          65.5814   94.3535   10.9972 N.ar    1  UNL1       -0.2250
     30 C          66.0763   95.1926    9.8567 C.ar    1  UNL1        0.1022
     31 C          67.1323   94.6578    8.9351 C.ar    1  UNL1        0.0414
     32 C          67.6932   93.2841    9.1542 C.ar    1  UNL1        0.1022
     33 N          67.1982   92.4449   10.2948 N.ar    1  UNL1       -0.2250
@<TRIPOS>BOND
     1     9    10    1
     2    10    11   ar
     3    11    12   ar
     4    12    13   ar
     5    13    16    1
     6    16    17   ar
     7    17    18   ar
     8    18    19   ar
     9    19    20   ar
    10    13    14   ar
    11    14     1    1
    12     1     2    2
    13     1     3   am
    14     3     4    1
    15     4     5    1
    16     5     6    1
    17     6     7    1
    18     7     8    1
    19     8    21    1
    20    21    22    1
    21    22    23   ar
    22    23    24   ar
    23    24    25   ar
    24    25    26   ar
    25    26    28    1
    26    28    29   ar
    27    29    30   ar
    28    30    31   ar
    29    31    32   ar
    30    32    33   ar
    31    26    27   ar
    32    14    15   ar
    33    15    10   ar
    34    20    16   ar
    35     8     3    1
    36    27    22   ar
    37    33    28   ar
@<TRIPOS>MOLECULE
*****
 33 37 0 0 0
SMALL
GASTEIGER

@<TRIPOS>ATOM
      1 C          63.3982   87.8212   13.2413 C.2     1  UNL1        0.2506
      2 O          63.5812   88.9113   12.2272 O.2     1  UNL1       -0.2699
      3 N          63.3407   88.1577   14.7019 N.am    1  UNL1       -0.2723
      4 C          63.1577   87.0676   15.7160 C.3     1  UNL1        0.1257
      5 C          63.1002   87.4041   17.1767 C.3     1  UNL1        0.1637
      6 O          63.2255   88.8306   17.6232 O.3     1  UNL1       -0.3502
      7 C          63.4085   89.9206   16.6092 C.3     1  UNL1        0.1622
      8 C          63.4660   89.5842   15.1485 C.3     1  UNL1        0.1096
      9 C          64.6656   82.8105   13.7763 C.3     1  UNL1        0.0310
     10 C          63.9066   83.8894   13.0622 C.ar    1  UNL1       -0.0216
     11 C          63.0222   83.5418   11.9016 C.ar    1  UNL1       -0.0026
     12 C          62.2632   84.6207   11.1875 C.ar    1  UNL1        0.0207
     13 C          62.3885   86.0471   11.6341 C.ar    1  UNL1        0.1072
     14 C          63.2729   86.3947   12.7947 C.ar    1  UNL1        0.0726
     15 C          64.0319   85.3158   13.5088 C.ar    1  UNL1        0.0018
     16 N          61.6295   87.1260   10.9200 N.ar    1  UNL1       -0.1477
     17 N          61.9545   87.6845    9.5663 N.ar    1  UNL1       -0.1447
     18 C          60.9381   88.7395    9.2439 C.ar    1  UNL1        0.1446
     19 C          59.9849   88.8330   10.3983 C.ar    1  UNL1        0.1446
     20 N          60.4123   87.8358   11.4342 N.ar    1  UNL1       -0.1447
     21 C          63.6490   90.6742   14.1345 C.3     1  UNL1        0.0487
     22 C          65.0052   91.2771   13.9178 C.ar    1  UNL1       -0.0203
     23 C          66.1048   91.0245   14.9062 C.ar    1  UNL1       -0.0042
     24 C          67.4612   91.6275   14.6896 C.ar    1  UNL1       -0.0002
     25 C          67.7178   92.4830   13.4846 C.ar    1  UNL1        0.0030
     26 C          66.6181   92.7356   12.4961 C.ar    1  UNL1        0.0355
     27 C          65.2619   92.1327   12.7128 C.ar    1  UNL1       -0.0012
     28 C          66.8748   93.5911   11.2910 C.ar    1  UNL1        0.1622
     29 N          67.6946   93.0580   10.1536 N.ar    1  UNL1       -0.2250
     30 C          67.9512   93.9135    8.9485 C.ar    1  UNL1        0.1022
     31 C          67.3881   95.3022    8.8809 C.ar    1  UNL1        0.0414
     32 C          66.5684   95.8353   10.0184 C.ar    1  UNL1        0.1022
     33 N          66.3118   94.9798   11.2234 N.ar    1  UNL1       -0.2250
@<TRIPOS>BOND
     1     9    10    1
     2    10    11   ar
     3    11    12   ar
     4    12    13   ar
     5    13    16    1
     6    16    17   ar
     7    17    18   ar
     8    18    19   ar
     9    19    20   ar
    10    13    14   ar
    11    14     1    1
    12     1     2    2
    13     1     3   am
    14     3     4    1
    15     4     5    1
    16     5     6    1
    17     6     7    1
    18     7     8    1
    19     8    21    1
    20    21    22    1
    21    22    23   ar
    22    23    24   ar
    23    24    25   ar
    24    25    26   ar
    25    26    28    1
    26    28    29   ar
    27    29    30   ar
    28    30    31   ar
    29    31    32   ar
    30    32    33   ar
    31    26    27   ar
    32    14    15   ar
    33    15    10   ar
    34    20    16   ar
    35     8     3    1
    36    27    22   ar
    37    33    28   ar
@<TRIPOS>MOLECULE
*****
 33 37 0 0 0
SMALL
GASTEIGER

@<TRIPOS>ATOM
      1 C          62.3942   84.7031   12.2463 C.2     1  UNL1        0.2506
      2 O          61.8826   85.7542   13.1862 O.2     1  UNL1       -0.2699
      3 N          62.6159   85.0338   10.8001 N.am    1  UNL1       -0.2723
      4 C          63.1275   83.9826    9.8602 C.3     1  UNL1        0.1257
      5 C          63.3491   84.3134    8.4140 C.3     1  UNL1        0.1637
      6 O          63.0593   85.6953    7.9077 O.3     1  UNL1       -0.3502
      7 C          62.5477   86.7464    8.8476 C.3     1  UNL1        0.1622
      8 C          62.3260   86.4157   10.2938 C.3     1  UNL1        0.1096
      9 C          62.7606   79.5881   11.4079 C.3     1  UNL1        0.0310
     10 C          62.8673   80.7637   12.3334 C.ar    1  UNL1       -0.0216
     11 C          63.2638   80.5574   13.7652 C.ar    1  UNL1       -0.0026
     12 C          63.3705   81.7330   14.6908 C.ar    1  UNL1        0.0207
     13 C          63.0806   83.1149   14.1845 C.ar    1  UNL1        0.1072
     14 C          62.6841   83.3212   12.7526 C.ar    1  UNL1        0.0726
     15 C          62.5774   82.1456   11.8271 C.ar    1  UNL1        0.0018
     16 N          63.1873   84.2905   15.1100 N.ar    1  UNL1       -0.1477
     17 N          64.3313   85.2582   15.1779 N.ar    1  UNL1       -0.1447
     18 C          64.0198   86.2706   16.2400 C.ar    1  UNL1        0.1446
     19 C          62.6832   85.9285   16.8285 C.ar    1  UNL1        0.1446
     20 N          62.1687   84.7048   16.1302 N.ar    1  UNL1       -0.1447
     21 C          61.8144   87.4669   11.2336 C.3     1  UNL1        0.0487
     22 C          62.4258   88.8366   11.2315 C.ar    1  UNL1       -0.0203
     23 C          62.3599   89.6854    9.9966 C.ar    1  UNL1       -0.0042
     24 C          62.9713   91.0552    9.9945 C.ar    1  UNL1       -0.0002
     25 C          63.6487   91.5760   11.2273 C.ar    1  UNL1        0.0030
     26 C          63.7146   90.7271   12.4623 C.ar    1  UNL1        0.0355
     27 C          63.1032   89.3574   12.4644 C.ar    1  UNL1       -0.0012
     28 C          64.3920   91.2480   13.6951 C.ar    1  UNL1        0.1622
     29 N          63.6835   91.2015   15.0165 N.ar    1  UNL1       -0.2250
     30 C          64.3609   91.7224   16.2494 C.ar    1  UNL1        0.1022
     31 C          65.7467   92.2897   16.1608 C.ar    1  UNL1        0.0414
     32 C          66.4551   92.3361   14.8394 C.ar    1  UNL1        0.1022
     33 N          65.7777   91.8152   13.6066 N.ar    1  UNL1       -0.2250
@<TRIPOS>BOND
     1     9    10    1
     2    10    11   ar
     3    11    12   ar
     4    12    13   ar
     5    13    16    1
     6    16    17   ar
     7    17    18   ar
     8    18    19   ar
     9    19    20   ar
    10    13    14   ar
    11    14     1    1
    12     1     2    2
    13     1     3   am
    14     3     4    1
    15     4     5    1
    16     5     6    1
    17     6     7    1
    18     7     8    1
    19     8    21    1
    20    21    22    1
    21    22    23   ar
    22    23    24   ar
    23    24    25   ar
    24    25    26   ar
    25    26    28    1
    26    28    29   ar
    27    29    30   ar
    28    30    31   ar
    29    31    32   ar
    30    32    33   ar
    31    26    27   ar
    32    14    15   ar
    33    15    10   ar
    34    20    16   ar
    35     8     3    1
    36    27    22   ar
    37    33    28   ar
