@<TRIPOS>MOLECULE
*****
 30 33 0 0 0
SMALL
GASTEIGER

@<TRIPOS>ATOM
      1 C          62.5383   88.2370   10.9765 C.3     1  UNL1        0.0219
      2 C          63.1348   87.5544   12.1717 C.3     1  UNL1        0.0820
      3 C          63.2065   86.0570   12.2220 C.3     1  UNL1        0.0671
      4 C          63.8030   85.3744   13.4171 C.ar    1  UNL1        0.0837
      5 C          64.3277   86.1893   14.5619 C.ar    1  UNL1        0.1159
      6 N          64.8568   85.2441   15.5996 N.ar    1  UNL1       -0.1314
      7 N          64.6590   83.8450   15.0960 N.ar    1  UNL1       -0.0576
      8 N          64.0077   83.9256   13.7471 N.ar    1  UNL1       -0.1813
      9 C          64.2560   87.6867   14.5117 C.3     1  UNL1        0.1426
     10 N          63.6595   88.3693   13.3165 N.am    1  UNL1       -0.2715
     11 C          63.5877   89.8668   13.2662 C.2     1  UNL1        0.2514
     12 O          62.9913   90.5494   12.0711 O.2     1  UNL1       -0.2698
     13 C          63.6279   82.7617   12.8806 C.ar    1  UNL1        0.2543
     14 N          63.8747   82.8155   11.4020 N.ar    1  UNL1       -0.2060
     15 C          63.4948   81.6515   10.5353 C.ar    1  UNL1        0.1332
     16 C          62.8683   80.4338   11.1472 C.ar    1  UNL1        0.1784
     17 F          62.4885   79.2699   10.2807 F       1  UNL1       -0.2009
     18 C          62.6216   80.3800   12.6259 C.ar    1  UNL1        0.1332
     19 N          63.0014   81.5439   13.4925 N.ar    1  UNL1       -0.2060
     20 C          64.1125   90.6816   14.4111 C.ar    1  UNL1        0.0809
     21 C          63.3496   90.7408   15.7013 C.ar    1  UNL1        0.0068
     22 C          63.8743   91.5557   16.8461 C.ar    1  UNL1        0.0002
     23 C          65.1619   92.3113   16.7008 C.ar    1  UNL1        0.0061
     24 C          65.9248   92.2521   15.4107 C.ar    1  UNL1        0.0989
     25 C          65.4001   91.4372   14.2658 C.ar    1  UNL1        0.1483
     26 F          66.1629   91.3780   12.9756 F       1  UNL1       -0.2041
     27 C          67.2125   93.0077   15.2653 C.3     1  UNL1        0.4207
     28 F          68.5001   93.7632   15.1199 F       1  UNL1       -0.1658
     29 F          67.9140   91.9709   16.0917 F       1  UNL1       -0.1658
     30 F          66.5108   94.0444   14.4389 F       1  UNL1       -0.1658
@<TRIPOS>BOND
     1     2     1    1
     2     2     3    1
     3     3     4    1
     4     4     5   ar
     5     5     6   ar
     6     6     7   ar
     7     7     8   ar
     8     8    13    1
     9    13    14   ar
    10    14    15   ar
    11    15    16   ar
    12    16    17    1
    13    16    18   ar
    14    18    19   ar
    15     5     9    1
    16     9    10    1
    17    10    11   am
    18    11    12    2
    19    11    20    1
    20    20    21   ar
    21    21    22   ar
    22    22    23   ar
    23    23    24   ar
    24    24    27    1
    25    27    28    1
    26    27    29    1
    27    27    30    1
    28    24    25   ar
    29    25    26    1
    30    10     2    1
    31    25    20   ar
    32     8     4   ar
    33    19    13   ar
@<TRIPOS>MOLECULE
*****
 30 33 0 0 0
SMALL
GASTEIGER

@<TRIPOS>ATOM
      1 C          63.5166   86.8725   13.8965 C.3     1  UNL1        0.0219
      2 C          63.4963   88.0313   12.9442 C.3     1  UNL1        0.0820
      3 C          64.2338   89.2929   13.2825 C.3     1  UNL1        0.0671
      4 C          64.2135   90.4518   12.3303 C.ar    1  UNL1        0.0837
      5 C          63.4557   90.3490   11.0399 C.ar    1  UNL1        0.1159
      6 N          63.6154   91.6463   10.3040 N.ar    1  UNL1       -0.1314
      7 N          64.4718   92.5508   11.1396 N.ar    1  UNL1       -0.0576
      8 N          64.8415   91.8126   12.3920 N.ar    1  UNL1       -0.1813
      9 C          62.7182   89.0874   10.7016 C.3     1  UNL1        0.1426
     10 N          62.7385   87.9286   11.6539 N.am    1  UNL1       -0.2715
     11 C          62.0009   86.6669   11.3156 C.2     1  UNL1        0.2514
     12 O          62.0212   85.5080   12.2677 O.2     1  UNL1       -0.2698
     13 C          65.6902   92.3422   13.5097 C.ar    1  UNL1        0.2543
     14 N          65.2243   92.2155   14.9298 N.ar    1  UNL1       -0.2060
     15 C          66.0730   92.7451   16.0477 C.ar    1  UNL1        0.1332
     16 C          67.3874   93.4013   15.7452 C.ar    1  UNL1        0.1784
     17 F          68.2361   93.9309   16.8629 F       1  UNL1       -0.2009
     18 C          67.8532   93.5280   14.3249 C.ar    1  UNL1        0.1332
     19 N          67.0047   92.9985   13.2072 N.ar    1  UNL1       -0.2060
     20 C          61.2432   86.5642   10.0251 C.ar    1  UNL1        0.0809
     21 C          59.9495   87.3038    9.8541 C.ar    1  UNL1        0.0068
     22 C          59.1917   87.2011    8.5637 C.ar    1  UNL1        0.0002
     23 C          59.7276   86.3587    7.4443 C.ar    1  UNL1        0.0061
     24 C          61.0213   85.6190    7.6153 C.ar    1  UNL1        0.0989
     25 C          61.7791   85.7218    8.9057 C.ar    1  UNL1        0.1483
     26 F          63.0727   84.9821    9.0767 F       1  UNL1       -0.2041
     27 C          61.5573   84.7765    6.4959 C.3     1  UNL1        0.4207
     28 F          62.0934   83.9341    5.3765 F       1  UNL1       -0.1658
     29 F          62.9407   85.2838    6.7767 F       1  UNL1       -0.1658
     30 F          60.1739   84.2694    6.2151 F       1  UNL1       -0.1658
@<TRIPOS>BOND
     1     2     1    1
     2     2     3    1
     3     3     4    1
     4     4     5   ar
     5     5     6   ar
     6     6     7   ar
     7     7     8   ar
     8     8    13    1
     9    13    14   ar
    10    14    15   ar
    11    15    16   ar
    12    16    17    1
    13    16    18   ar
    14    18    19   ar
    15     5     9    1
    16     9    10    1
    17    10    11   am
    18    11    12    2
    19    11    20    1
    20    20    21   ar
    21    21    22   ar
    22    22    23   ar
    23    23    24   ar
    24    24    27    1
    25    27    28    1
    26    27    29    1
    27    27    30    1
    28    24    25   ar
    29    25    26    1
    30    10     2    1
    31    25    20   ar
    32     8     4   ar
    33    19    13   ar
@<TRIPOS>MOLECULE
*****
 30 33 0 0 0
SMALL
GASTEIGER

@<TRIPOS>ATOM
      1 C          61.6373   87.7602   10.7976 C.3     1  UNL1        0.0219
      2 C          62.5710   87.4182   11.9207 C.3     1  UNL1        0.0820
      3 C          62.6498   86.0087   12.4276 C.3     1  UNL1        0.0671
      4 C          63.5835   85.6667   13.5507 C.ar    1  UNL1        0.0837
      5 C          64.4383   86.7342   14.1669 C.ar    1  UNL1        0.1159
      6 N          65.2585   86.1024   15.2523 N.ar    1  UNL1       -0.1314
      7 N          64.9105   84.6443   15.3070 N.ar    1  UNL1       -0.0576
      8 N          63.8753   84.3750   14.2553 N.ar    1  UNL1       -0.1813
      9 C          64.3595   88.1438   13.6600 C.3     1  UNL1        0.1426
     10 N          63.4258   88.4857   12.5368 N.am    1  UNL1       -0.2715
     11 C          63.3469   89.8953   12.0299 C.2     1  UNL1        0.2514
     12 O          62.4133   90.2373   10.9068 O.2     1  UNL1       -0.2698
     13 C          63.2430   83.0472   13.9602 C.ar    1  UNL1        0.2543
     14 N          61.9575   82.6631   14.6309 N.ar    1  UNL1       -0.2060
     15 C          61.3251   81.3353   14.3357 C.ar    1  UNL1        0.1332
     16 C          61.9783   80.3917   13.3700 C.ar    1  UNL1        0.1784
     17 F          61.3459   79.0639   13.0748 F       1  UNL1       -0.2009
     18 C          63.2639   80.7758   12.6993 C.ar    1  UNL1        0.1332
     19 N          63.8962   82.1036   12.9944 N.ar    1  UNL1       -0.2060
     20 C          64.2018   90.9629   12.6461 C.ar    1  UNL1        0.0809
     21 C          64.3294   91.0535   14.1379 C.ar    1  UNL1        0.0068
     22 C          65.1842   92.1210   14.7540 C.ar    1  UNL1        0.0002
     23 C          65.9114   93.0979   13.8784 C.ar    1  UNL1        0.0061
     24 C          65.7839   93.0073   12.3866 C.ar    1  UNL1        0.0989
     25 C          64.9290   91.9398   11.7704 C.ar    1  UNL1        0.1483
     26 F          64.8014   91.8491   10.2786 F       1  UNL1       -0.2041
     27 C          66.5111   93.9842   11.5108 C.3     1  UNL1        0.4207
     28 F          67.2383   94.9611   10.6351 F       1  UNL1       -0.1658
     29 F          65.7995   95.1190   12.1859 F       1  UNL1       -0.1658
     30 F          67.2227   92.8493   10.8358 F       1  UNL1       -0.1658
@<TRIPOS>BOND
     1     2     1    1
     2     2     3    1
     3     3     4    1
     4     4     5   ar
     5     5     6   ar
     6     6     7   ar
     7     7     8   ar
     8     8    13    1
     9    13    14   ar
    10    14    15   ar
    11    15    16   ar
    12    16    17    1
    13    16    18   ar
    14    18    19   ar
    15     5     9    1
    16     9    10    1
    17    10    11   am
    18    11    12    2
    19    11    20    1
    20    20    21   ar
    21    21    22   ar
    22    22    23   ar
    23    23    24   ar
    24    24    27    1
    25    27    28    1
    26    27    29    1
    27    27    30    1
    28    24    25   ar
    29    25    26    1
    30    10     2    1
    31    25    20   ar
    32     8     4   ar
    33    19    13   ar
@<TRIPOS>MOLECULE
*****
 30 33 0 0 0
SMALL
GASTEIGER

@<TRIPOS>ATOM
      1 C          63.1591   91.5301    3.3673 C.3     1  UNL1        0.0219
      2 C          61.7033   91.6130    3.7194 C.3     1  UNL1        0.0820
      3 C          61.1460   90.7509    4.8130 C.3     1  UNL1        0.0671
      4 C          59.6902   90.8338    5.1651 C.ar    1  UNL1        0.0837
      5 C          58.7919   91.7789    4.4237 C.ar    1  UNL1        0.1159
      6 N          57.4089   91.6431    4.9883 N.ar    1  UNL1       -0.1314
      7 N          57.4525   90.6140    6.0788 N.ar    1  UNL1       -0.0576
      8 N          58.8625   90.1138    6.1881 N.ar    1  UNL1       -0.1813
      9 C          59.3492   92.6411    3.3301 C.3     1  UNL1        0.1426
     10 N          60.8050   92.5581    2.9780 N.am    1  UNL1       -0.2715
     11 C          61.3625   93.4203    1.8843 C.2     1  UNL1        0.2514
     12 O          62.8182   93.3374    1.5322 O.2     1  UNL1       -0.2698
     13 C          59.3576   89.0760    7.1512 C.ar    1  UNL1        0.2543
     14 N          59.0052   87.6326    6.9450 N.ar    1  UNL1       -0.2060
     15 C          59.5004   86.5947    7.9082 C.ar    1  UNL1        0.1332
     16 C          60.3479   87.0001    9.0774 C.ar    1  UNL1        0.1784
     17 F          60.8431   85.9622   10.0405 F       1  UNL1       -0.2009
     18 C          60.7003   88.4435    9.2835 C.ar    1  UNL1        0.1332
     19 N          60.2052   89.4814    8.3205 N.ar    1  UNL1       -0.2060
     20 C          60.4641   94.3654    1.1428 C.ar    1  UNL1        0.0809
     21 C          60.4614   95.8249    1.4891 C.ar    1  UNL1        0.0068
     22 C          59.5630   96.7700    0.7477 C.ar    1  UNL1        0.0002
     23 C          58.6674   96.2556   -0.3401 C.ar    1  UNL1        0.0061
     24 C          58.6701   94.7962   -0.6864 C.ar    1  UNL1        0.0989
     25 C          59.5685   93.8511    0.0551 C.ar    1  UNL1        0.1483
     26 F          59.5712   92.3916   -0.2912 F       1  UNL1       -0.2041
     27 C          57.7745   94.2817   -1.7742 C.3     1  UNL1        0.4207
     28 F          56.8788   93.7672   -2.8618 F       1  UNL1       -0.1658
     29 F          56.5749   94.5588   -0.9174 F       1  UNL1       -0.1658
     30 F          58.9741   94.0046   -2.6309 F       1  UNL1       -0.1658
@<TRIPOS>BOND
     1     2     1    1
     2     2     3    1
     3     3     4    1
     4     4     5   ar
     5     5     6   ar
     6     6     7   ar
     7     7     8   ar
     8     8    13    1
     9    13    14   ar
    10    14    15   ar
    11    15    16   ar
    12    16    17    1
    13    16    18   ar
    14    18    19   ar
    15     5     9    1
    16     9    10    1
    17    10    11   am
    18    11    12    2
    19    11    20    1
    20    20    21   ar
    21    21    22   ar
    22    22    23   ar
    23    23    24   ar
    24    24    27    1
    25    27    28    1
    26    27    29    1
    27    27    30    1
    28    24    25   ar
    29    25    26    1
    30    10     2    1
    31    25    20   ar
    32     8     4   ar
    33    19    13   ar
@<TRIPOS>MOLECULE
*****
 30 33 0 0 0
SMALL
GASTEIGER

@<TRIPOS>ATOM
      1 C          61.6168   87.6934   10.7621 C.3     1  UNL1        0.0219
      2 C          62.5463   87.3512   11.8888 C.3     1  UNL1        0.0820
      3 C          62.6358   85.9383   12.3843 C.3     1  UNL1        0.0671
      4 C          63.5651   85.5961   13.5108 C.ar    1  UNL1        0.0837
      5 C          64.4050   86.6668   14.1419 C.ar    1  UNL1        0.1159
      6 N          65.2240   86.0340   15.2276 N.ar    1  UNL1       -0.1314
      7 N          64.8903   84.5721   15.2675 N.ar    1  UNL1       -0.0576
      8 N          63.8651   84.3014   14.2065 N.ar    1  UNL1       -0.1813
      9 C          64.3155   88.0797   13.6464 C.3     1  UNL1        0.1426
     10 N          63.3860   88.4219   12.5197 N.am    1  UNL1       -0.2715
     11 C          63.2965   89.8349   12.0242 C.2     1  UNL1        0.2514
     12 O          62.3671   90.1771   10.8976 O.2     1  UNL1       -0.2698
     13 C          63.2482   82.9700   13.8958 C.ar    1  UNL1        0.2543
     14 N          62.0088   82.5309   14.6177 N.ar    1  UNL1       -0.2060
     15 C          61.3918   81.1993   14.3070 C.ar    1  UNL1        0.1332
     16 C          62.0142   80.3070   13.2745 C.ar    1  UNL1        0.1784
     17 F          61.3973   78.9755   12.9638 F       1  UNL1       -0.2009
     18 C          63.2537   80.7461   12.5526 C.ar    1  UNL1        0.1332
     19 N          63.8706   82.0775   12.8633 N.ar    1  UNL1       -0.2060
     20 C          64.1364   90.9056   12.6552 C.ar    1  UNL1        0.0809
     21 C          64.9202   91.8498   11.7927 C.ar    1  UNL1        0.0068
     22 C          65.7601   92.9206   12.4237 C.ar    1  UNL1        0.0002
     23 C          65.8160   93.0471   13.9173 C.ar    1  UNL1        0.0061
     24 C          65.0322   92.1029   14.7799 C.ar    1  UNL1        0.0989
     25 C          64.1923   91.0322   14.1488 C.ar    1  UNL1        0.1483
     26 F          63.4084   90.0880   15.0114 F       1  UNL1       -0.2041
     27 C          65.0880   92.2294   16.2735 C.3     1  UNL1        0.4207
     28 F          65.1440   92.3558   17.7671 F       1  UNL1       -0.1658
     29 F          66.5685   92.4588   16.1986 F       1  UNL1       -0.1658
     30 F          63.6076   92.0000   16.3484 F       1  UNL1       -0.1658
@<TRIPOS>BOND
     1     2     1    1
     2     2     3    1
     3     3     4    1
     4     4     5   ar
     5     5     6   ar
     6     6     7   ar
     7     7     8   ar
     8     8    13    1
     9    13    14   ar
    10    14    15   ar
    11    15    16   ar
    12    16    17    1
    13    16    18   ar
    14    18    19   ar
    15     5     9    1
    16     9    10    1
    17    10    11   am
    18    11    12    2
    19    11    20    1
    20    20    21   ar
    21    21    22   ar
    22    22    23   ar
    23    23    24   ar
    24    24    27    1
    25    27    28    1
    26    27    29    1
    27    27    30    1
    28    24    25   ar
    29    25    26    1
    30    10     2    1
    31    25    20   ar
    32     8     4   ar
    33    19    13   ar
