@<TRIPOS>MOLECULE
*****
 35 37 0 0 0
SMALL
GASTEIGER

@<TRIPOS>ATOM
      1 C          62.9879   87.1395   12.3828 C.3     1  UNL1        0.0952
      2 C          63.4938   88.5461   12.2588 C.3     1  UNL1        0.1106
      3 N          64.3727   89.1240   13.3282 N.pl3   1  UNL1       -0.3041
      4 C          64.7457   88.2953   14.5215 C.3     1  UNL1        0.1123
      5 C          64.2397   86.8887   14.6455 C.3     1  UNL1        0.1150
      6 N          63.3608   86.3108   13.5761 N.pl3   1  UNL1       -0.2764
      7 C          64.8787   90.5307   13.2042 C.ar    1  UNL1        0.0492
      8 C          64.3760   91.4140   12.1010 C.ar    1  UNL1        0.0144
      9 C          64.8819   92.8206   11.9769 C.ar    1  UNL1        0.0007
     10 C          65.8905   93.3440   12.9562 C.ar    1  UNL1        0.0241
     11 C          66.3931   92.4608   14.0594 C.ar    1  UNL1        0.1053
     12 C          65.8872   91.0541   14.1834 C.ar    1  UNL1        0.0326
     13 S          67.4017   92.9841   15.0386 S.O2    1  UNL1        0.0103
     14 C          68.4102   93.5074   16.0178 C.3     1  UNL1        0.1816
     15 O          66.3180   93.1603   16.0606 O.2     1  UNL1       -0.1686
     16 O          68.4854   92.8079   14.0166 O.2     1  UNL1       -0.1686
     17 C          66.3964   94.7507   12.8322 C.3     1  UNL1        0.1649
     18 O          65.7922   95.6785   11.8201 O.3     1  UNL1       -0.3772
     19 H          65.9897   95.3556   10.9270 H       1  UNL1        0.2109
     20 C          62.8549   84.9041   13.7001 C.ar    1  UNL1        0.2201
     21 N          62.0089   84.5122   14.8751 N.ar    1  UNL1       -0.2124
     22 C          61.5030   83.1056   14.9992 C.ar    1  UNL1        0.1014
     23 C          61.8430   82.0908   13.9481 C.ar    1  UNL1        0.0479
     24 C          62.6890   82.4827   12.7731 C.ar    1  UNL1        0.1553
     25 N          63.1950   83.8894   12.6491 N.ar    1  UNL1       -0.2099
     26 C          63.0291   81.4679   11.7221 C.3     1  UNL1        0.4348
     27 F          63.3692   80.4532   10.6711 F       1  UNL1       -0.1644
     28 F          63.9060   80.7466   12.7022 F       1  UNL1       -0.1644
     29 F          62.1522   82.1892   10.7420 F       1  UNL1       -0.1644
     30 C          61.3371   80.6842   14.0722 C.3     1  UNL1        0.1666
     31 O          59.9014   80.4320   14.4262 O.3     1  UNL1       -0.3771
     32 H          59.7308   80.7459   15.3279 H       1  UNL1        0.2109
     33 C          62.6447   85.5070   10.3910 C.3     1  UNL1        0.0018
     34 C          62.1090   86.5616   11.3134 C.3     1  UNL1        0.0199
     35 C          60.6944   87.0383   11.1664 C.3     1  UNL1        0.0018
@<TRIPOS>BOND
     1    33    34    1
     2    34    35    1
     3     1    34    1
     4     1     2    1
     5     2     3    1
     6     3     7    1
     7     7     8   ar
     8     8     9   ar
     9     9    10   ar
    10    10    17    1
    11    17    18    1
    12    10    11   ar
    13    11    13    1
    14    13    14    1
    15    13    15    2
    16    13    16    2
    17    11    12   ar
    18     3     4    1
    19     4     5    1
    20     5     6    1
    21     6    20    1
    22    20    21   ar
    23    21    22   ar
    24    22    23   ar
    25    23    30    1
    26    30    31    1
    27    23    24   ar
    28    24    26    1
    29    26    27    1
    30    26    28    1
    31    26    29    1
    32    24    25   ar
    33     6     1    1
    34    25    20   ar
    35    12     7   ar
    36    18    19    1
    37    31    32    1
@<TRIPOS>MOLECULE
*****
 35 37 0 0 0
SMALL
GASTEIGER

@<TRIPOS>ATOM
      1 C          63.0604   85.9875   12.3629 C.3     1  UNL1        0.0952
      2 C          63.2665   87.3577   12.9375 C.3     1  UNL1        0.1106
      3 N          63.9841   87.5228   14.2443 N.pl3   1  UNL1       -0.3041
      4 C          64.4957   86.3177   14.9764 C.3     1  UNL1        0.1123
      5 C          64.2896   84.9476   14.4018 C.3     1  UNL1        0.1150
      6 N          63.5719   84.7825   13.0950 N.pl3   1  UNL1       -0.2764
      7 C          64.1902   88.8930   14.8189 C.ar    1  UNL1        0.0492
      8 C          63.4388   89.3117   16.0477 C.ar    1  UNL1        0.0144
      9 C          63.6448   90.6819   16.6223 C.ar    1  UNL1        0.0007
     10 C          64.6023   91.6334   15.9681 C.ar    1  UNL1        0.0241
     11 C          65.3537   91.2146   14.7392 C.ar    1  UNL1        0.1053
     12 C          65.1477   89.8444   14.1646 C.ar    1  UNL1        0.0326
     13 S          66.3112   92.1660   14.0850 S.O2    1  UNL1        0.0103
     14 C          67.2687   93.1174   13.4308 C.3     1  UNL1        0.1816
     15 O          65.2104   92.6617   13.1948 O.2     1  UNL1       -0.1686
     16 O          67.4120   91.6704   14.9752 O.2     1  UNL1       -0.1686
     17 C          64.8083   93.0035   16.5427 C.3     1  UNL1        0.1649
     18 O          63.8207   93.5615   17.5241 O.3     1  UNL1       -0.3772
     19 H          62.9677   93.6972   17.0827 H       1  UNL1        0.2109
     20 C          63.3659   83.4123   12.5204 C.ar    1  UNL1        0.2201
     21 N          63.9829   83.0515   11.2017 N.ar    1  UNL1       -0.2124
     22 C          63.7769   81.6813   10.6271 C.ar    1  UNL1        0.1014
     23 C          62.9537   80.6719   11.3712 C.ar    1  UNL1        0.0479
     24 C          62.3367   81.0327   12.6900 C.ar    1  UNL1        0.1553
     25 N          62.5428   82.4030   13.2646 N.ar    1  UNL1       -0.2099
     26 C          61.5136   80.0234   13.4341 C.3     1  UNL1        0.4348
     27 F          60.6906   79.0141   14.1782 F       1  UNL1       -0.1644
     28 F          62.6711   79.0694   13.4203 F       1  UNL1       -0.1644
     29 F          60.3562   80.9774   13.4479 F       1  UNL1       -0.1644
     30 C          62.7477   79.3018   10.7966 C.3     1  UNL1        0.1666
     31 O          62.7604   79.1022    9.3100 O.3     1  UNL1       -0.3771
     32 H          62.0011   79.5594    8.9159 H       1  UNL1        0.2109
     33 C          60.9321   86.3104   10.9082 C.3     1  UNL1        0.0018
     34 C          62.3427   85.8225   11.0561 C.3     1  UNL1        0.0199
     35 C          63.0357   85.1694    9.8971 C.3     1  UNL1        0.0018
@<TRIPOS>BOND
     1    33    34    1
     2    34    35    1
     3     1    34    1
     4     1     2    1
     5     2     3    1
     6     3     7    1
     7     7     8   ar
     8     8     9   ar
     9     9    10   ar
    10    10    17    1
    11    17    18    1
    12    10    11   ar
    13    11    13    1
    14    13    14    1
    15    13    15    2
    16    13    16    2
    17    11    12   ar
    18     3     4    1
    19     4     5    1
    20     5     6    1
    21     6    20    1
    22    20    21   ar
    23    21    22   ar
    24    22    23   ar
    25    23    30    1
    26    30    31    1
    27    23    24   ar
    28    24    26    1
    29    26    27    1
    30    26    28    1
    31    26    29    1
    32    24    25   ar
    33     6     1    1
    34    25    20   ar
    35    12     7   ar
    36    18    19    1
    37    31    32    1
@<TRIPOS>MOLECULE
*****
 35 37 0 0 0
SMALL
GASTEIGER

@<TRIPOS>ATOM
      1 C          63.9448   86.7359   14.2517 C.3     1  UNL1        0.0952
      2 C          64.4097   88.1496   14.0639 C.3     1  UNL1        0.1106
      3 N          64.0194   88.9100   12.8312 N.pl3   1  UNL1       -0.3041
      4 C          63.1643   88.2567   11.7864 C.3     1  UNL1        0.1123
      5 C          62.6994   86.8430   11.9742 C.3     1  UNL1        0.1150
      6 N          63.0896   86.0826   13.2069 N.pl3   1  UNL1       -0.2764
      7 C          64.4844   90.3237   12.6435 C.ar    1  UNL1        0.0492
      8 C          64.0149   91.1167   11.4599 C.ar    1  UNL1        0.0144
      9 C          64.4798   92.5304   11.2721 C.ar    1  UNL1        0.0007
     10 C          65.4143   93.1512   12.2679 C.ar    1  UNL1        0.0241
     11 C          65.8838   92.3582   13.4514 C.ar    1  UNL1        0.1053
     12 C          65.4188   90.9444   13.6392 C.ar    1  UNL1        0.0326
     13 S          66.8182   92.9789   14.4471 S.O2    1  UNL1        0.0103
     14 C          67.7527   93.5996   15.4429 C.3     1  UNL1        0.1816
     15 O          67.9578   92.8021   13.4880 O.2     1  UNL1       -0.1686
     16 O          65.6787   93.1557   15.4063 O.2     1  UNL1       -0.1686
     17 C          65.8792   94.5648   12.0801 C.3     1  UNL1        0.1649
     18 O          67.0430   94.8584   11.1804 O.3     1  UNL1       -0.3772
     19 H          67.8486   94.4713   11.5572 H       1  UNL1        0.2109
     20 C          62.6246   84.6689   13.3946 C.ar    1  UNL1        0.2201
     21 N          61.8494   84.2911   14.6219 N.ar    1  UNL1       -0.2124
     22 C          61.3844   82.8774   14.8097 C.ar    1  UNL1        0.1014
     23 C          61.6947   81.8414   13.7702 C.ar    1  UNL1        0.0479
     24 C          62.4700   82.2192   12.5429 C.ar    1  UNL1        0.1553
     25 N          62.9350   83.6330   12.3551 N.ar    1  UNL1       -0.2099
     26 C          62.7803   81.1833   11.5034 C.3     1  UNL1        0.4348
     27 F          63.0906   80.1474   10.4639 F       1  UNL1       -0.1644
     28 F          63.1347   80.2052   12.5840 F       1  UNL1       -0.1644
     29 F          62.4259   82.1614   10.4229 F       1  UNL1       -0.1644
     30 C          61.2298   80.4278   13.9580 C.3     1  UNL1        0.1666
     31 O          59.8363   80.1545   14.4413 O.3     1  UNL1       -0.3771
     32 H          59.7398   80.4792   15.3503 H       1  UNL1        0.2109
     33 C          65.4294   84.9518   15.4191 C.3     1  UNL1        0.0018
     34 C          64.3350   85.9755   15.4844 C.3     1  UNL1        0.0199
     35 C          63.6310   86.2389   16.7824 C.3     1  UNL1        0.0018
@<TRIPOS>BOND
     1    33    34    1
     2    34    35    1
     3     1    34    1
     4     1     2    1
     5     2     3    1
     6     3     7    1
     7     7     8   ar
     8     8     9   ar
     9     9    10   ar
    10    10    17    1
    11    17    18    1
    12    10    11   ar
    13    11    13    1
    14    13    14    1
    15    13    15    2
    16    13    16    2
    17    11    12   ar
    18     3     4    1
    19     4     5    1
    20     5     6    1
    21     6    20    1
    22    20    21   ar
    23    21    22   ar
    24    22    23   ar
    25    23    30    1
    26    30    31    1
    27    23    24   ar
    28    24    26    1
    29    26    27    1
    30    26    28    1
    31    26    29    1
    32    24    25   ar
    33     6     1    1
    34    25    20   ar
    35    12     7   ar
    36    18    19    1
    37    31    32    1
@<TRIPOS>MOLECULE
*****
 35 37 0 0 0
SMALL
GASTEIGER

@<TRIPOS>ATOM
      1 C          63.1086   87.2797   12.5704 C.3     1  UNL1        0.0952
      2 C          63.6337   88.6840   12.5269 C.3     1  UNL1        0.1106
      3 N          64.5170   89.1890   13.6290 N.pl3   1  UNL1       -0.3041
      4 C          64.8753   88.2895   14.7747 C.3     1  UNL1        0.1123
      5 C          64.3501   86.8852   14.8183 C.3     1  UNL1        0.1150
      6 N          63.4668   86.3802   13.7161 N.pl3   1  UNL1       -0.2764
      7 C          65.0422   90.5934   13.5854 C.ar    1  UNL1        0.0492
      8 C          65.1690   91.3864   14.8524 C.ar    1  UNL1        0.0144
      9 C          65.6941   92.7907   14.8088 C.ar    1  UNL1        0.0007
     10 C          66.0925   93.4022   13.4983 C.ar    1  UNL1        0.0241
     11 C          65.9656   92.6093   12.2313 C.ar    1  UNL1        0.1053
     12 C          65.4405   91.2049   12.2749 C.ar    1  UNL1        0.0326
     13 S          66.3639   93.2207   10.9208 S.O2    1  UNL1        0.0103
     14 C          66.7622   93.8322    9.6103 C.3     1  UNL1        0.1816
     15 O          64.9653   93.7292   10.7330 O.2     1  UNL1       -0.1686
     16 O          67.7625   92.7123   11.1087 O.2     1  UNL1       -0.1686
     17 C          66.6176   94.8066   13.4547 C.3     1  UNL1        0.1649
     18 O          65.9579   95.8271   12.5752 O.3     1  UNL1       -0.3772
     19 H          66.0795   95.5794   11.6453 H       1  UNL1        0.2109
     20 C          62.9416   84.9758   13.7597 C.ar    1  UNL1        0.2201
     21 N          62.1046   84.5238   14.9195 N.ar    1  UNL1       -0.2124
     22 C          61.5794   83.1194   14.9631 C.ar    1  UNL1        0.1014
     23 C          61.8913   82.1670   13.8470 C.ar    1  UNL1        0.0479
     24 C          62.7284   82.6190   12.6872 C.ar    1  UNL1        0.1553
     25 N          63.2535   84.0235   12.6436 N.ar    1  UNL1       -0.2099
     26 C          63.0402   81.6667   11.5711 C.3     1  UNL1        0.4348
     27 F          63.3521   80.7144   10.4550 F       1  UNL1       -0.1644
     28 F          62.4040   82.6071   10.5909 F       1  UNL1       -0.1644
     29 F          63.6765   80.7263   12.5513 F       1  UNL1       -0.1644
     30 C          61.3662   80.7626   13.8906 C.3     1  UNL1        0.1666
     31 O          59.9698   80.4986   14.3707 O.3     1  UNL1       -0.3771
     32 H          59.9028   80.7263   15.3112 H       1  UNL1        0.2109
     33 C          62.7877   85.8729   10.4099 C.3     1  UNL1        0.0018
     34 C          62.2252   86.7747   11.4683 C.3     1  UNL1        0.0199
     35 C          60.7794   87.1717   11.4245 C.3     1  UNL1        0.0018
@<TRIPOS>BOND
     1    33    34    1
     2    34    35    1
     3     1    34    1
     4     1     2    1
     5     2     3    1
     6     3     7    1
     7     7     8   ar
     8     8     9   ar
     9     9    10   ar
    10    10    17    1
    11    17    18    1
    12    10    11   ar
    13    11    13    1
    14    13    14    1
    15    13    15    2
    16    13    16    2
    17    11    12   ar
    18     3     4    1
    19     4     5    1
    20     5     6    1
    21     6    20    1
    22    20    21   ar
    23    21    22   ar
    24    22    23   ar
    25    23    30    1
    26    30    31    1
    27    23    24   ar
    28    24    26    1
    29    26    27    1
    30    26    28    1
    31    26    29    1
    32    24    25   ar
    33     6     1    1
    34    25    20   ar
    35    12     7   ar
    36    18    19    1
    37    31    32    1
@<TRIPOS>MOLECULE
*****
 35 37 0 0 0
SMALL
GASTEIGER

@<TRIPOS>ATOM
      1 C          61.0839   88.2783    9.4001 C.3     1  UNL1        0.0952
      2 C          61.8024   87.2940   10.2746 C.3     1  UNL1        0.1106
      3 N          61.8738   85.8496    9.8766 N.pl3   1  UNL1       -0.3041
      4 C          61.2267   85.3894    8.6040 C.3     1  UNL1        0.1123
      5 C          60.5082   86.3737    7.7294 C.3     1  UNL1        0.1150
      6 N          60.4368   87.8182    8.1275 N.pl3   1  UNL1       -0.2764
      7 C          62.5923   84.8652   10.7512 C.ar    1  UNL1        0.0492
      8 C          63.4553   83.8045   10.1347 C.ar    1  UNL1        0.0144
      9 C          64.1738   82.8202   11.0092 C.ar    1  UNL1        0.0007
     10 C          64.0293   82.8966   12.5003 C.ar    1  UNL1        0.0241
     11 C          63.1663   83.9573   13.1168 C.ar    1  UNL1        0.1053
     12 C          62.4478   84.9416   12.2422 C.ar    1  UNL1        0.0326
     13 S          63.0218   84.0337   14.6079 S.O2    1  UNL1        0.0103
     14 C          62.8772   84.1101   16.0989 C.3     1  UNL1        0.1816
     15 O          64.0706   85.1049   14.6547 O.2     1  UNL1       -0.1686
     16 O          61.9729   82.9624   14.5611 O.2     1  UNL1       -0.1686
     17 C          64.7478   81.9123   13.3749 C.3     1  UNL1        0.1649
     18 O          63.9826   80.8184   14.0589 O.3     1  UNL1       -0.3772
     19 H          63.3791   81.2057   14.7122 H       1  UNL1        0.2109
     20 C          59.7183   88.8025    7.2529 C.ar    1  UNL1        0.2201
     21 N          58.2203   88.8749    7.2787 N.ar    1  UNL1       -0.2124
     22 C          57.5017   89.8592    6.4042 C.ar    1  UNL1        0.1014
     23 C          58.2813   90.7711    5.5037 C.ar    1  UNL1        0.0479
     24 C          59.7793   90.6988    5.4778 C.ar    1  UNL1        0.1553
     25 N          60.4978   89.7144    6.3525 N.ar    1  UNL1       -0.2099
     26 C          60.5588   91.6106    4.5774 C.3     1  UNL1        0.4348
     27 F          61.3383   92.5225    3.6770 F       1  UNL1       -0.1644
     28 F          59.5733   92.7109    4.8385 F       1  UNL1       -0.1644
     29 F          61.5443   90.5104    4.3164 F       1  UNL1       -0.1644
     30 C          57.5627   91.7554    4.6292 C.3     1  UNL1        0.1666
     31 O          56.0731   91.8999    4.7293 O.3     1  UNL1       -0.3771
     32 H          55.6481   91.0796    4.4336 H       1  UNL1        0.2109
     33 C          59.7355   90.2874   10.3464 C.3     1  UNL1        0.0018
     34 C          61.0125   89.7228    9.7981 C.3     1  UNL1        0.0199
     35 C          62.2180   90.6026    9.6480 C.3     1  UNL1        0.0018
@<TRIPOS>BOND
     1    33    34    1
     2    34    35    1
     3     1    34    1
     4     1     2    1
     5     2     3    1
     6     3     7    1
     7     7     8   ar
     8     8     9   ar
     9     9    10   ar
    10    10    17    1
    11    17    18    1
    12    10    11   ar
    13    11    13    1
    14    13    14    1
    15    13    15    2
    16    13    16    2
    17    11    12   ar
    18     3     4    1
    19     4     5    1
    20     5     6    1
    21     6    20    1
    22    20    21   ar
    23    21    22   ar
    24    22    23   ar
    25    23    30    1
    26    30    31    1
    27    23    24   ar
    28    24    26    1
    29    26    27    1
    30    26    28    1
    31    26    29    1
    32    24    25   ar
    33     6     1    1
    34    25    20   ar
    35    12     7   ar
    36    18    19    1
    37    31    32    1
@<TRIPOS>MOLECULE
*****
 35 37 0 0 0
SMALL
GASTEIGER

@<TRIPOS>ATOM
      1 C          63.3223   87.4837   12.8811 C.3     1  UNL1        0.0952
      2 C          63.1126   86.1166   12.3007 C.3     1  UNL1        0.1106
      3 N          63.6235   84.9073   13.0265 N.pl3   1  UNL1       -0.3041
      4 C          64.3440   85.0652   14.3326 C.3     1  UNL1        0.1123
      5 C          64.5536   86.4323   14.9129 C.3     1  UNL1        0.1150
      6 N          64.0428   87.6416   14.1872 N.pl3   1  UNL1       -0.2764
      7 C          63.4138   83.5401   12.4460 C.ar    1  UNL1        0.0492
      8 C          63.8646   83.2422   11.0467 C.ar    1  UNL1        0.0144
      9 C          63.6550   81.8750   10.4663 C.ar    1  UNL1        0.0007
     10 C          62.9945   80.8057   11.2851 C.ar    1  UNL1        0.0241
     11 C          62.5437   81.1036   12.6844 C.ar    1  UNL1        0.1053
     12 C          62.7534   82.4709   13.2649 C.ar    1  UNL1        0.0326
     13 S          61.8833   80.0344   13.5033 S.O2    1  UNL1        0.0103
     14 C          61.2228   78.9652   14.3222 C.3     1  UNL1        0.1816
     15 O          60.5919   80.7960   13.4562 O.2     1  UNL1       -0.1686
     16 O          63.1747   79.2729   13.5504 O.2     1  UNL1       -0.1686
     17 C          62.7848   79.4386   10.7047 C.3     1  UNL1        0.1649
     18 O          62.7808   79.2480    9.2169 O.3     1  UNL1       -0.3772
     19 H          62.0160   79.7058    8.8343 H       1  UNL1        0.2109
     20 C          64.2525   89.0088   14.7676 C.ar    1  UNL1        0.2201
     21 N          63.3801   89.4893   15.8893 N.ar    1  UNL1       -0.2124
     22 C          63.5897   90.8564   16.4697 C.ar    1  UNL1        0.1014
     23 C          64.6718   91.7432   15.9285 C.ar    1  UNL1        0.0479
     24 C          65.5442   91.2627   14.8069 C.ar    1  UNL1        0.1553
     25 N          65.3345   89.8955   14.2264 N.ar    1  UNL1       -0.2099
     26 C          66.6262   92.1494   14.2656 C.3     1  UNL1        0.4348
     27 F          67.7082   93.0361   13.7244 F       1  UNL1       -0.1644
     28 F          67.6057   91.5387   15.2234 F       1  UNL1       -0.1644
     29 F          65.6466   92.7602   13.3078 F       1  UNL1       -0.1644
     30 C          64.8814   93.1103   16.5089 C.3     1  UNL1        0.1666
     31 O          63.9563   93.6236   17.5723 O.3     1  UNL1       -0.3771
     32 H          63.0683   93.7399   17.1998 H       1  UNL1        0.2109
     33 C          62.7295   88.6899   10.6577 C.3     1  UNL1        0.0018
     34 C          62.8114   88.6930   12.1554 C.3     1  UNL1        0.0199
     35 C          62.3826   89.9055   12.9274 C.3     1  UNL1        0.0018
@<TRIPOS>BOND
     1    33    34    1
     2    34    35    1
     3     1    34    1
     4     1     2    1
     5     2     3    1
     6     3     7    1
     7     7     8   ar
     8     8     9   ar
     9     9    10   ar
    10    10    17    1
    11    17    18    1
    12    10    11   ar
    13    11    13    1
    14    13    14    1
    15    13    15    2
    16    13    16    2
    17    11    12   ar
    18     3     4    1
    19     4     5    1
    20     5     6    1
    21     6    20    1
    22    20    21   ar
    23    21    22   ar
    24    22    23   ar
    25    23    30    1
    26    30    31    1
    27    23    24   ar
    28    24    26    1
    29    26    27    1
    30    26    28    1
    31    26    29    1
    32    24    25   ar
    33     6     1    1
    34    25    20   ar
    35    12     7   ar
    36    18    19    1
    37    31    32    1
@<TRIPOS>MOLECULE
*****
 35 37 0 0 0
SMALL
GASTEIGER

@<TRIPOS>ATOM
      1 C          60.9889   88.5657    9.8213 C.3     1  UNL1        0.0952
      2 C          61.6774   87.6888   10.8248 C.3     1  UNL1        0.1106
      3 N          61.7909   86.2135   10.5789 N.pl3   1  UNL1       -0.3041
      4 C          61.2158   85.6150    9.3295 C.3     1  UNL1        0.1123
      5 C          60.5272   86.4918    8.3261 C.3     1  UNL1        0.1150
      6 N          60.4138   87.9671    8.5720 N.pl3   1  UNL1       -0.2764
      7 C          62.4795   85.3367   11.5825 C.ar    1  UNL1        0.0492
      8 C          63.3487   85.9480   12.6411 C.ar    1  UNL1        0.0144
      9 C          64.0373   85.0712   13.6447 C.ar    1  UNL1        0.0007
     10 C          63.8567   83.5831   13.5896 C.ar    1  UNL1        0.0241
     11 C          62.9875   82.9718   12.5309 C.ar    1  UNL1        0.1053
     12 C          62.2989   83.8486   11.5274 C.ar    1  UNL1        0.0326
     13 S          62.8068   81.4838   12.4758 S.O2    1  UNL1        0.0103
     14 C          62.6262   79.9958   12.4207 C.3     1  UNL1        0.1816
     15 O          61.7341   81.5753   13.5202 O.2     1  UNL1       -0.1686
     16 O          63.8796   81.3923   11.4314 O.2     1  UNL1       -0.1686
     17 C          64.5453   82.7064   14.5931 C.3     1  UNL1        0.1649
     18 O          64.4791   83.0427   16.0534 O.3     1  UNL1       -0.3772
     19 H          64.9499   83.8753   16.2151 H       1  UNL1        0.2109
     20 C          59.7251   88.8440    7.5684 C.ar    1  UNL1        0.2201
     21 N          58.2271   88.8677    7.4960 N.ar    1  UNL1       -0.2124
     22 C          57.5385   89.7444    6.4925 C.ar    1  UNL1        0.1014
     23 C          58.3479   90.5975    5.5613 C.ar    1  UNL1        0.0479
     24 C          59.8460   90.5738    5.6337 C.ar    1  UNL1        0.1553
     25 N          60.5346   89.6970    6.6373 N.ar    1  UNL1       -0.2099
     26 C          60.6554   91.4269    4.7026 C.3     1  UNL1        0.4348
     27 F          61.4649   92.2799    3.7714 F       1  UNL1       -0.1644
     28 F          59.7231   92.5766    4.9454 F       1  UNL1       -0.1644
     29 F          61.5877   90.2772    4.4597 F       1  UNL1       -0.1644
     30 C          57.6593   91.4743    4.5578 C.3     1  UNL1        0.1666
     31 O          56.2004   91.7876    4.7116 O.3     1  UNL1       -0.3771
     32 H          55.6819   90.9754    4.6004 H       1  UNL1        0.2109
     33 C          62.0307   90.9447    9.7535 C.3     1  UNL1        0.0018
     34 C          60.8754   90.0410   10.0672 C.3     1  UNL1        0.0199
     35 C          59.6066   90.6127   10.6268 C.3     1  UNL1        0.0018
@<TRIPOS>BOND
     1    33    34    1
     2    34    35    1
     3     1    34    1
     4     1     2    1
     5     2     3    1
     6     3     7    1
     7     7     8   ar
     8     8     9   ar
     9     9    10   ar
    10    10    17    1
    11    17    18    1
    12    10    11   ar
    13    11    13    1
    14    13    14    1
    15    13    15    2
    16    13    16    2
    17    11    12   ar
    18     3     4    1
    19     4     5    1
    20     5     6    1
    21     6    20    1
    22    20    21   ar
    23    21    22   ar
    24    22    23   ar
    25    23    30    1
    26    30    31    1
    27    23    24   ar
    28    24    26    1
    29    26    27    1
    30    26    28    1
    31    26    29    1
    32    24    25   ar
    33     6     1    1
    34    25    20   ar
    35    12     7   ar
    36    18    19    1
    37    31    32    1
@<TRIPOS>MOLECULE
*****
 35 37 0 0 0
SMALL
GASTEIGER

@<TRIPOS>ATOM
      1 C          63.4480   88.8152   12.6494 C.3     1  UNL1        0.0952
      2 C          62.9569   87.4022   12.7600 C.3     1  UNL1        0.1106
      3 N          63.5328   86.4872   13.7998 N.pl3   1  UNL1       -0.3041
      4 C          64.5999   86.9852   14.7290 C.3     1  UNL1        0.1123
      5 C          65.0910   88.3982   14.6183 C.3     1  UNL1        0.1150
      6 N          64.5151   89.3132   13.5785 N.pl3   1  UNL1       -0.2764
      7 C          63.0416   85.0742   13.9104 C.ar    1  UNL1        0.0492
      8 C          62.3548   84.6148   15.1623 C.ar    1  UNL1        0.0144
      9 C          61.8636   83.2019   15.2730 C.ar    1  UNL1        0.0007
     10 C          62.0592   82.2483   14.1317 C.ar    1  UNL1        0.0241
     11 C          62.7460   82.7077   12.8798 C.ar    1  UNL1        0.1053
     12 C          63.2372   84.1207   12.7692 C.ar    1  UNL1        0.0326
     13 S          62.9416   81.7541   11.7386 S.O2    1  UNL1        0.0103
     14 C          63.1372   80.8006   10.5973 C.3     1  UNL1        0.1816
     15 O          63.2461   80.6531   12.7107 O.2     1  UNL1       -0.1686
     16 O          62.6371   82.8551   10.7665 O.2     1  UNL1       -0.1686
     17 C          61.5680   80.8353   14.2424 C.3     1  UNL1        0.1649
     18 O          60.0975   80.5585   14.3472 O.3     1  UNL1       -0.3772
     19 H          59.7606   80.9135   15.1847 H       1  UNL1        0.2109
     20 C          65.0063   90.7262   13.4679 C.ar    1  UNL1        0.2201
     21 N          65.1453   91.5705   14.6999 N.ar    1  UNL1       -0.2124
     22 C          65.6365   92.9834   14.5893 C.ar    1  UNL1        0.1014
     23 C          65.9886   93.5522   13.2467 C.ar    1  UNL1        0.0479
     24 C          65.8496   92.7079   12.0147 C.ar    1  UNL1        0.1553
     25 N          65.3584   91.2949   12.1253 N.ar    1  UNL1       -0.2099
     26 C          66.2017   93.2766   10.6721 C.3     1  UNL1        0.4348
     27 F          66.5538   93.8452    9.3295 F       1  UNL1       -0.1644
     28 F          64.7783   93.7098   10.4823 F       1  UNL1       -0.1644
     29 F          67.6251   92.8433   10.8619 F       1  UNL1       -0.1644
     30 C          66.4798   94.9651   13.1361 C.3     1  UNL1        0.1666
     31 O          65.7645   95.9406   12.2491 O.3     1  UNL1       -0.3771
     32 H          65.8564   95.6639   11.3240 H       1  UNL1        0.2109
     33 C          62.0126   90.8880   12.0225 C.3     1  UNL1        0.0018
     34 C          62.8721   89.7301   11.6096 C.3     1  UNL1        0.0199
     35 C          63.1557   89.4872   10.1568 C.3     1  UNL1        0.0018
@<TRIPOS>BOND
     1    33    34    1
     2    34    35    1
     3     1    34    1
     4     1     2    1
     5     2     3    1
     6     3     7    1
     7     7     8   ar
     8     8     9   ar
     9     9    10   ar
    10    10    17    1
    11    17    18    1
    12    10    11   ar
    13    11    13    1
    14    13    14    1
    15    13    15    2
    16    13    16    2
    17    11    12   ar
    18     3     4    1
    19     4     5    1
    20     5     6    1
    21     6    20    1
    22    20    21   ar
    23    21    22   ar
    24    22    23   ar
    25    23    30    1
    26    30    31    1
    27    23    24   ar
    28    24    26    1
    29    26    27    1
    30    26    28    1
    31    26    29    1
    32    24    25   ar
    33     6     1    1
    34    25    20   ar
    35    12     7   ar
    36    18    19    1
    37    31    32    1
@<TRIPOS>MOLECULE
*****
 35 37 0 0 0
SMALL
GASTEIGER

@<TRIPOS>ATOM
      1 C          63.2236   88.2887   12.5197 C.3     1  UNL1        0.0952
      2 C          62.7553   86.8655   12.5913 C.3     1  UNL1        0.1106
      3 N          63.3662   85.9241   13.5865 N.pl3   1  UNL1       -0.3041
      4 C          64.4454   86.4058   14.5101 C.3     1  UNL1        0.1123
      5 C          64.9138   87.8289   14.4385 C.3     1  UNL1        0.1150
      6 N          64.3029   88.7704   13.4433 N.pl3   1  UNL1       -0.2764
      7 C          62.8977   84.5008   13.6581 C.ar    1  UNL1        0.0492
      8 C          62.2004   84.0018   14.8888 C.ar    1  UNL1        0.0144
      9 C          61.7319   82.5786   14.9604 C.ar    1  UNL1        0.0007
     10 C          61.9609   81.6544   13.8013 C.ar    1  UNL1        0.0241
     11 C          62.6582   82.1535   12.5706 C.ar    1  UNL1        0.1053
     12 C          63.1267   83.5767   12.4990 C.ar    1  UNL1        0.0326
     13 S          62.8872   81.2294   11.4115 S.O2    1  UNL1        0.0103
     14 C          63.1161   80.3052   10.2524 C.3     1  UNL1        0.1816
     15 O          62.6252   80.0498   12.3002 O.2     1  UNL1       -0.1686
     16 O          63.1491   82.4090   10.5228 O.2     1  UNL1       -0.1686
     17 C          61.4925   80.2313   13.8729 C.3     1  UNL1        0.1649
     18 O          60.0686   79.9276   14.2340 O.3     1  UNL1       -0.3772
     19 H          59.9023   80.1995   15.1501 H       1  UNL1        0.2109
     20 C          64.7713   90.1936   13.3717 C.ar    1  UNL1        0.2201
     21 N          64.3678   91.0587   12.2147 N.ar    1  UNL1       -0.2124
     22 C          64.8361   92.4819   12.1431 C.ar    1  UNL1        0.1014
     23 C          65.7081   93.0400   13.2285 C.ar    1  UNL1        0.0479
     24 C          66.1117   92.1750   14.3856 C.ar    1  UNL1        0.1553
     25 N          65.6433   90.7517   14.4572 N.ar    1  UNL1       -0.2099
     26 C          66.9836   92.7330   15.4710 C.3     1  UNL1        0.4348
     27 F          67.8556   93.2911   16.5565 F       1  UNL1       -0.1644
     28 F          68.1995   92.4517   14.6389 F       1  UNL1       -0.1644
     29 F          65.7677   93.0144   16.3031 F       1  UNL1       -0.1644
     30 C          66.1765   94.4632   13.1569 C.3     1  UNL1        0.1666
     31 O          66.1115   95.2097   11.8575 O.3     1  UNL1       -0.3771
     32 H          66.7224   94.8056   11.2215 H       1  UNL1        0.2109
     33 C          61.5095   90.1549   11.9461 C.3     1  UNL1        0.0018
     34 C          62.6127   89.2302   11.5245 C.3     1  UNL1        0.0199
     35 C          63.1050   89.2469   10.1077 C.3     1  UNL1        0.0018
@<TRIPOS>BOND
     1    33    34    1
     2    34    35    1
     3     1    34    1
     4     1     2    1
     5     2     3    1
     6     3     7    1
     7     7     8   ar
     8     8     9   ar
     9     9    10   ar
    10    10    17    1
    11    17    18    1
    12    10    11   ar
    13    11    13    1
    14    13    14    1
    15    13    15    2
    16    13    16    2
    17    11    12   ar
    18     3     4    1
    19     4     5    1
    20     5     6    1
    21     6    20    1
    22    20    21   ar
    23    21    22   ar
    24    22    23   ar
    25    23    30    1
    26    30    31    1
    27    23    24   ar
    28    24    26    1
    29    26    27    1
    30    26    28    1
    31    26    29    1
    32    24    25   ar
    33     6     1    1
    34    25    20   ar
    35    12     7   ar
    36    18    19    1
    37    31    32    1
