@<TRIPOS>MOLECULE
*****
 45 50 0 0 0
SMALL
GASTEIGER

@<TRIPOS>ATOM
      1 N          63.6501   85.9223   12.8409 N.am    1  UNL1       -0.2964
      2 C          63.4062   86.9525   13.9034 C.2     1  UNL1        0.2461
      3 O          62.3790   86.7035   14.9678 O.2     1  UNL1       -0.2701
      4 H          64.3243   86.0857   12.1423 H       1  UNL1        0.1501
      5 C          64.1895   88.2318   13.9017 C.ar    1  UNL1        0.0550
      6 C          65.2563   88.4594   14.9313 C.ar    1  UNL1        0.0061
      7 C          66.0395   89.7386   14.9296 C.ar    1  UNL1        0.0189
      8 C          65.7559   90.7902   13.8982 C.ar    1  UNL1        0.0788
      9 C          64.6892   90.5626   12.8686 C.ar    1  UNL1        0.0989
     10 C          63.9060   89.2834   12.8703 C.ar    1  UNL1        0.0251
     11 N          64.6339   91.7721   11.9831 N.ar    1  UNL1       -0.2253
     12 C          65.6666   92.7473   12.4655 C.ar    1  UNL1        0.1615
     13 N          66.3601   92.1405   13.6491 N.ar    1  UNL1       -0.3121
     14 C          65.9551   94.0931   11.8690 C.ar    1  UNL1        0.1153
     15 C          66.1129   94.2371   10.3843 C.ar    1  UNL1        0.0222
     16 C          66.4014   95.5828    9.7878 C.ar    1  UNL1        0.0032
     17 C          66.5321   96.7844   10.6759 C.ar    1  UNL1        0.0207
     18 C          66.3742   96.6404   12.1606 C.ar    1  UNL1        0.0989
     19 N          66.0857   95.2947   12.7572 N.ar    1  UNL1       -0.2408
     20 C          67.4638   92.7728   14.4440 C.3     1  UNL1        0.0869
     21 C          68.8948   92.4597   14.1214 C.3     1  UNL1        0.0226
     22 C          69.9985   93.0920   14.9164 C.3     1  UNL1        0.0019
     23 C          69.6711   94.0375   16.0339 C.3     1  UNL1        0.0001
     24 C          68.2401   94.3507   16.3565 C.3     1  UNL1        0.0019
     25 C          67.1365   93.7184   15.5615 C.3     1  UNL1        0.0226
     26 C          62.8668   84.6430   12.8426 C.3     1  UNL1        0.1260
     27 C          61.9484   83.4846   12.5886 C.3     1  UNL1        0.0269
     28 C          62.1913   82.4580   13.6549 C.3     1  UNL1        0.0022
     29 C          63.2598   82.9818   14.5680 C.3     1  UNL1        0.0022
     30 C          63.6773   84.3323   14.0659 C.3     1  UNL1        0.0269
     31 N          61.5928   86.5824   11.6743 N.am    1  UNL1       -0.2826
     32 C          62.2201   85.2211   11.6189 C.2     1  UNL1        0.2419
     33 O          62.2007   84.4378   10.3398 O.2     1  UNL1       -0.2731
     34 H          61.6056   87.0965   12.5138 H       1  UNL1        0.1549
     35 C          59.6525   88.3169    8.0031 C.ar    1  UNL1        0.0001
     36 C          59.7917   86.8302    8.1466 C.ar    1  UNL1        0.0013
     37 C          60.4385   86.2521    9.3703 C.ar    1  UNL1        0.0147
     38 C          60.9461   87.1606   10.4506 C.ar    1  UNL1        0.0503
     39 C          60.8069   88.6472   10.3071 C.ar    1  UNL1        0.0147
     40 C          60.1601   89.2254    9.0834 C.ar    1  UNL1        0.0013
     41 C          59.0140   90.3783    6.5566 C.2     1  UNL1        0.0151
     42 C          59.0058   88.8950    6.7794 C.2     1  UNL1        0.0012
     43 O          59.2140   91.5506    4.2467 O.co2   1  UNL1       -0.5446
     44 C          58.3673   90.9564    5.3329 C.2     1  UNL1        0.0729
     45 O          56.8736   90.9404    5.1953 O.co2   1  UNL1       -0.5446
@<TRIPOS>UNITY_ATOM_ATTR
43 1
charge -1
@<TRIPOS>BOND
     1    43    44   ar
     2    44    45   ar
     3    44    41    1
     4    41    42    2
     5    42    35    1
     6    35    36   ar
     7    36    37   ar
     8    37    38   ar
     9    38    31    1
    10    31    32   am
    11    32    33    2
    12    32    26    1
    13    26     1    1
    14     1     2   am
    15     2     3    2
    16     2     5    1
    17     5     6   ar
    18     6     7   ar
    19     7     8   ar
    20     8     9   ar
    21     9    10   ar
    22     9    11   ar
    23    11    12   ar
    24    12    14    1
    25    14    15   ar
    26    15    16   ar
    27    16    17   ar
    28    17    18   ar
    29    18    19   ar
    30    12    13   ar
    31    13    20    1
    32    20    21    1
    33    21    22    1
    34    22    23    1
    35    23    24    1
    36    24    25    1
    37    26    27    1
    38    27    28    1
    39    28    29    1
    40    29    30    1
    41    38    39   ar
    42    39    40   ar
    43    40    35   ar
    44    30    26    1
    45    10     5   ar
    46    19    14   ar
    47    25    20    1
    48    13     8   ar
    49    31    34    1
    50     1     4    1
@<TRIPOS>MOLECULE
*****
 45 50 0 0 0
SMALL
GASTEIGER

@<TRIPOS>ATOM
      1 N          60.8650   89.2484    8.3003 N.am    1  UNL1       -0.2964
      2 C          61.1674   89.4193    9.7595 C.2     1  UNL1        0.2461
      3 O          60.3717   88.6656   10.7837 O.2     1  UNL1       -0.2701
      4 H          61.3873   89.7431    7.6282 H       1  UNL1        0.1501
      5 C          62.2654   90.3440   10.1947 C.ar    1  UNL1        0.0550
      6 C          62.6125   91.5412    9.3603 C.ar    1  UNL1        0.0061
      7 C          63.7105   92.4658    9.7954 C.ar    1  UNL1        0.0189
      8 C          64.4614   92.1933   11.0650 C.ar    1  UNL1        0.0788
      9 C          64.1143   90.9961   11.8995 C.ar    1  UNL1        0.0989
     10 C          63.0163   90.0715   11.4643 C.ar    1  UNL1        0.0251
     11 N          65.0223   90.9843   13.0934 N.ar    1  UNL1       -0.2253
     12 C          65.9306   92.1742   12.9968 C.ar    1  UNL1        0.1615
     13 N          65.5840   92.9214   11.7432 N.ar    1  UNL1       -0.3121
     14 C          66.9981   92.5507   13.9811 C.ar    1  UNL1        0.1153
     15 C          66.6202   93.1261   15.3138 C.ar    1  UNL1        0.0222
     16 C          67.6876   93.5026   16.2981 C.ar    1  UNL1        0.0032
     17 C          69.1329   93.3036   15.9496 C.ar    1  UNL1        0.0207
     18 C          69.5108   92.7282   14.6170 C.ar    1  UNL1        0.0989
     19 N          68.4434   92.3517   13.6327 N.ar    1  UNL1       -0.2408
     20 C          66.2439   94.1763   11.2537 C.3     1  UNL1        0.0869
     21 C          66.0580   95.4626   12.0026 C.3     1  UNL1        0.0226
     22 C          66.7180   96.7175   11.5130 C.3     1  UNL1        0.0019
     23 C          67.5639   96.6860   10.2747 C.3     1  UNL1        0.0001
     24 C          67.7499   95.3997    9.5259 C.3     1  UNL1        0.0019
     25 C          67.0899   94.1448   10.0155 C.3     1  UNL1        0.0226
     26 C          59.7670   88.3237    7.8652 C.3     1  UNL1        0.1260
     27 C          58.6263   87.6102    7.2023 C.3     1  UNL1        0.0269
     28 C          58.3553   86.3524    7.9734 C.3     1  UNL1        0.0022
     29 C          59.3285   86.2886    9.1130 C.3     1  UNL1        0.0022
     30 C          60.2010   87.5070    9.0461 C.3     1  UNL1        0.0269
     31 N          60.7466   89.9833    6.1229 N.am    1  UNL1       -0.2826
     32 C          59.5625   89.3337    6.7753 C.2     1  UNL1        0.2419
     33 O          58.1737   89.6942    6.3378 O.2     1  UNL1       -0.2731
     34 H          61.6581   89.7467    6.4101 H       1  UNL1        0.1549
     35 C          60.1330   93.0135    2.8530 C.ar    1  UNL1        0.0001
     36 C          59.0065   92.6763    3.7843 C.ar    1  UNL1        0.0013
     37 C          59.2110   91.6663    4.8742 C.ar    1  UNL1        0.0147
     38 C          60.5421   90.9933    5.0330 C.ar    1  UNL1        0.0503
     39 C          61.6687   91.3304    4.1017 C.ar    1  UNL1        0.0147
     40 C          61.4642   92.3404    3.0118 C.ar    1  UNL1        0.0013
     41 C          59.1554   93.6527    0.5324 C.2     1  UNL1        0.0151
     42 C          59.9285   94.0235    1.7631 C.2     1  UNL1        0.0012
     43 O          57.5772   95.1958   -0.8380 O.co2   1  UNL1       -0.5446
     44 C          58.9509   94.6628   -0.5575 C.2     1  UNL1        0.0729
     45 O          60.1202   95.1398   -1.3670 O.co2   1  UNL1       -0.5446
@<TRIPOS>UNITY_ATOM_ATTR
43 1
charge -1
@<TRIPOS>BOND
     1    43    44   ar
     2    44    45   ar
     3    44    41    1
     4    41    42    2
     5    42    35    1
     6    35    36   ar
     7    36    37   ar
     8    37    38   ar
     9    38    31    1
    10    31    32   am
    11    32    33    2
    12    32    26    1
    13    26     1    1
    14     1     2   am
    15     2     3    2
    16     2     5    1
    17     5     6   ar
    18     6     7   ar
    19     7     8   ar
    20     8     9   ar
    21     9    10   ar
    22     9    11   ar
    23    11    12   ar
    24    12    14    1
    25    14    15   ar
    26    15    16   ar
    27    16    17   ar
    28    17    18   ar
    29    18    19   ar
    30    12    13   ar
    31    13    20    1
    32    20    21    1
    33    21    22    1
    34    22    23    1
    35    23    24    1
    36    24    25    1
    37    26    27    1
    38    27    28    1
    39    28    29    1
    40    29    30    1
    41    38    39   ar
    42    39    40   ar
    43    40    35   ar
    44    30    26    1
    45    10     5   ar
    46    19    14   ar
    47    25    20    1
    48    13     8   ar
    49    31    34    1
    50     1     4    1
@<TRIPOS>MOLECULE
*****
 45 50 0 0 0
SMALL
GASTEIGER

@<TRIPOS>ATOM
      1 N          61.0252   88.8307    8.5826 N.am    1  UNL1       -0.2964
      2 C          60.9613   89.5917    9.8737 C.2     1  UNL1        0.2461
      3 O          59.7467   89.4859   10.7474 O.2     1  UNL1       -0.2701
      4 H          61.8224   88.9002    8.0092 H       1  UNL1        0.1501
      5 C          62.1123   90.4584   10.2911 C.ar    1  UNL1        0.0550
      6 C          62.5255   91.6195    9.4362 C.ar    1  UNL1        0.0061
      7 C          63.6763   92.4862    9.8536 C.ar    1  UNL1        0.0189
      8 C          64.4140   92.1918   11.1261 C.ar    1  UNL1        0.0788
      9 C          64.0008   91.0307   11.9811 C.ar    1  UNL1        0.0989
     10 C          62.8500   90.1640   11.5636 C.ar    1  UNL1        0.0251
     11 N          64.9102   90.9861   13.1732 N.ar    1  UNL1       -0.2253
     12 C          65.8854   92.1197   13.0549 C.ar    1  UNL1        0.1615
     13 N          65.5787   92.8649   11.7898 N.ar    1  UNL1       -0.3121
     14 C          66.9758   92.4501   14.0307 C.ar    1  UNL1        0.1153
     15 C          66.6292   92.8815   15.4249 C.ar    1  UNL1        0.0222
     16 C          67.7195   93.2119   16.4006 C.ar    1  UNL1        0.0032
     17 C          69.1564   93.1109   15.9821 C.ar    1  UNL1        0.0207
     18 C          69.5029   92.6795   14.5879 C.ar    1  UNL1        0.0989
     19 N          68.4126   92.3491   13.6122 N.ar    1  UNL1       -0.2408
     20 C          66.3086   94.0713   11.2781 C.3     1  UNL1        0.0869
     21 C          67.2049   93.9539   10.0810 C.3     1  UNL1        0.0226
     22 C          67.9347   95.1603    9.5694 C.3     1  UNL1        0.0019
     23 C          67.7684   96.4841   10.2548 C.3     1  UNL1        0.0001
     24 C          66.8721   96.6016   11.4519 C.3     1  UNL1        0.0019
     25 C          66.1423   95.3951   11.9635 C.3     1  UNL1        0.0226
     26 C          59.8742   87.9640    8.1652 C.3     1  UNL1        0.1260
     27 C          58.8469   86.8924    7.9504 C.3     1  UNL1        0.0269
     28 C          57.8617   87.3916    6.9355 C.3     1  UNL1        0.0022
     29 C          58.2800   88.7716    6.5229 C.3     1  UNL1        0.0022
     30 C          59.5240   89.1255    7.2830 C.3     1  UNL1        0.0269
     31 N          61.7619   86.3014    8.8147 N.am    1  UNL1       -0.2826
     32 C          60.4651   86.9837    9.1347 C.2     1  UNL1        0.2419
     33 O          59.7591   86.6859   10.4242 O.2     1  UNL1       -0.2731
     34 H          62.2253   86.4968    7.9683 H       1  UNL1        0.1549
     35 C          63.5347   83.3605   11.7232 C.ar    1  UNL1        0.0001
     36 C          62.5864   84.4167   12.2085 C.ar    1  UNL1        0.0013
     37 C          61.9955   85.3969   11.2390 C.ar    1  UNL1        0.0147
     38 C          62.3528   85.3211    9.7842 C.ar    1  UNL1        0.0503
     39 C          63.3011   84.2650    9.2989 C.ar    1  UNL1        0.0147
     40 C          63.8920   83.2847   10.2684 C.ar    1  UNL1        0.0013
     41 C          63.2671   81.3040   13.2881 C.2     1  UNL1        0.0151
     42 C          64.1256   82.3803   12.6927 C.2     1  UNL1        0.0012
     43 O          63.0320   79.1786   14.7635 O.co2   1  UNL1       -0.5446
     44 C          63.8580   80.3238   14.2575 C.2     1  UNL1        0.0729
     45 O          65.2750   80.4887   14.7211 O.co2   1  UNL1       -0.5446
@<TRIPOS>UNITY_ATOM_ATTR
43 1
charge -1
@<TRIPOS>BOND
     1    43    44   ar
     2    44    45   ar
     3    44    41    1
     4    41    42    2
     5    42    35    1
     6    35    36   ar
     7    36    37   ar
     8    37    38   ar
     9    38    31    1
    10    31    32   am
    11    32    33    2
    12    32    26    1
    13    26     1    1
    14     1     2   am
    15     2     3    2
    16     2     5    1
    17     5     6   ar
    18     6     7   ar
    19     7     8   ar
    20     8     9   ar
    21     9    10   ar
    22     9    11   ar
    23    11    12   ar
    24    12    14    1
    25    14    15   ar
    26    15    16   ar
    27    16    17   ar
    28    17    18   ar
    29    18    19   ar
    30    12    13   ar
    31    13    20    1
    32    20    21    1
    33    21    22    1
    34    22    23    1
    35    23    24    1
    36    24    25    1
    37    26    27    1
    38    27    28    1
    39    28    29    1
    40    29    30    1
    41    38    39   ar
    42    39    40   ar
    43    40    35   ar
    44    30    26    1
    45    10     5   ar
    46    19    14   ar
    47    25    20    1
    48    13     8   ar
    49    31    34    1
    50     1     4    1
@<TRIPOS>MOLECULE
*****
 45 50 0 0 0
SMALL
GASTEIGER

@<TRIPOS>ATOM
      1 N          63.4195   86.5278   12.0599 N.am    1  UNL1       -0.2964
      2 C          62.7691   87.8297   12.4229 C.2     1  UNL1        0.2461
      3 O          61.2950   87.8813   12.6959 O.2     1  UNL1       -0.2701
      4 H          64.3870   86.4940   11.8807 H       1  UNL1        0.1501
      5 C          63.5927   89.0802   12.5131 C.ar    1  UNL1        0.0550
      6 C          63.3740   90.1946   11.5333 C.ar    1  UNL1        0.0061
      7 C          64.1977   91.4450   11.6235 C.ar    1  UNL1        0.0189
      8 C          65.2400   91.5809   12.6935 C.ar    1  UNL1        0.0788
      9 C          65.4587   90.4665   13.6734 C.ar    1  UNL1        0.0989
     10 C          64.6351   89.2161   13.5832 C.ar    1  UNL1        0.0251
     11 N          66.5509   90.8833   14.6132 N.ar    1  UNL1       -0.2253
     12 C          67.0073   92.2554   14.2143 C.ar    1  UNL1        0.1615
     13 N          66.1971   92.6866   13.0278 N.ar    1  UNL1       -0.3121
     14 C          68.0846   93.0558   14.8842 C.ar    1  UNL1        0.1153
     15 C          67.7282   94.0482   15.9509 C.ar    1  UNL1        0.0222
     16 C          68.8055   94.8486   16.6208 C.ar    1  UNL1        0.0032
     17 C          70.2392   94.6565   16.2240 C.ar    1  UNL1        0.0207
     18 C          70.5956   93.6640   15.1572 C.ar    1  UNL1        0.0989
     19 N          69.5183   92.8637   14.4873 N.ar    1  UNL1       -0.2408
     20 C          66.3219   93.9938   12.3029 C.3     1  UNL1        0.0869
     21 C          66.5472   94.0106   10.8200 C.3     1  UNL1        0.0226
     22 C          66.6720   95.3178   10.0952 C.3     1  UNL1        0.0019
     23 C          66.5717   96.6083   10.8532 C.3     1  UNL1        0.0001
     24 C          66.3465   96.5916   12.3361 C.3     1  UNL1        0.0019
     25 C          66.2216   95.2843   13.0609 C.3     1  UNL1        0.0226
     26 C          62.5958   85.2774   11.9697 C.3     1  UNL1        0.1260
     27 C          61.6532   84.1632   11.6234 C.3     1  UNL1        0.0269
     28 C          61.8122   83.0845   12.6535 C.3     1  UNL1        0.0022
     29 C          62.8531   83.5319   13.6364 C.3     1  UNL1        0.0022
     30 C          63.3374   84.8873   13.2138 C.3     1  UNL1        0.0269
     31 N          60.8909   86.9006   10.8707 N.am    1  UNL1       -0.2826
     32 C          62.0264   85.9288   10.7444 C.2     1  UNL1        0.2419
     33 O          62.5926   85.6085    9.3928 O.2     1  UNL1       -0.2731
     34 H          60.5193   87.1109   11.7578 H       1  UNL1        0.1549
     35 C          59.1826   88.8552    7.1948 C.ar    1  UNL1        0.0001
     36 C          59.9631   89.6697    8.1835 C.ar    1  UNL1        0.0013
     37 C          60.5325   89.0182    9.4087 C.ar    1  UNL1        0.0147
     38 C          60.3215   87.5521    9.6454 C.ar    1  UNL1        0.0503
     39 C          59.5411   86.7376    8.6567 C.ar    1  UNL1        0.0147
     40 C          58.9716   87.3891    7.4315 C.ar    1  UNL1        0.0013
     41 C          58.6194   91.0012    5.8432 C.2     1  UNL1        0.0151
     42 C          58.6132   89.5067    5.9695 C.2     1  UNL1        0.0012
     43 O          56.5649   91.6934    4.4115 O.co2   1  UNL1       -0.5446
     44 C          58.0500   91.6527    4.6179 C.2     1  UNL1        0.0729
     45 O          58.9658   92.2636    3.5990 O.co2   1  UNL1       -0.5446
@<TRIPOS>UNITY_ATOM_ATTR
43 1
charge -1
@<TRIPOS>BOND
     1    43    44   ar
     2    44    45   ar
     3    44    41    1
     4    41    42    2
     5    42    35    1
     6    35    36   ar
     7    36    37   ar
     8    37    38   ar
     9    38    31    1
    10    31    32   am
    11    32    33    2
    12    32    26    1
    13    26     1    1
    14     1     2   am
    15     2     3    2
    16     2     5    1
    17     5     6   ar
    18     6     7   ar
    19     7     8   ar
    20     8     9   ar
    21     9    10   ar
    22     9    11   ar
    23    11    12   ar
    24    12    14    1
    25    14    15   ar
    26    15    16   ar
    27    16    17   ar
    28    17    18   ar
    29    18    19   ar
    30    12    13   ar
    31    13    20    1
    32    20    21    1
    33    21    22    1
    34    22    23    1
    35    23    24    1
    36    24    25    1
    37    26    27    1
    38    27    28    1
    39    28    29    1
    40    29    30    1
    41    38    39   ar
    42    39    40   ar
    43    40    35   ar
    44    30    26    1
    45    10     5   ar
    46    19    14   ar
    47    25    20    1
    48    13     8   ar
    49    31    34    1
    50     1     4    1
