@<TRIPOS>MOLECULE
*****
 39 43 0 0 0
SMALL
GASTEIGER

@<TRIPOS>ATOM
      1 C          60.7079   87.5502    9.7054 C.ar    1  UNL1        0.0502
      2 C          59.8219   87.0716    8.5938 C.ar    1  UNL1        0.0143
      3 C          59.5817   87.9441    7.3975 C.ar    1  UNL1       -0.0030
      4 C          60.2277   89.2953    7.3130 C.ar    1  UNL1       -0.0223
      5 C          61.1137   89.7739    8.4246 C.ar    1  UNL1       -0.0034
      6 C          61.3539   88.9014    9.6208 C.ar    1  UNL1        0.0089
      7 C          59.9875   90.1678    6.1166 C.3     1  UNL1        0.0257
      8 C          61.1467   90.7977    5.4029 C.3     1  UNL1        0.0259
      9 C          60.9065   91.6702    4.2066 C.3     1  UNL1        0.0940
     10 N          59.5071   91.9129    3.7241 N.am    1  UNL1       -0.2761
     11 C          59.2669   92.7853    2.5279 C.2     1  UNL1        0.2494
     12 O          57.8675   93.0280    2.0454 O.2     1  UNL1       -0.2699
     13 C          58.3479   91.2830    4.4379 C.3     1  UNL1        0.0940
     14 C          58.5881   90.4105    5.6342 C.3     1  UNL1        0.0259
     15 C          60.4261   93.4152    1.8141 C.ar    1  UNL1        0.0659
     16 C          61.2243   92.6148    0.8280 C.ar    1  UNL1        0.0817
     17 C          62.3836   93.2447    0.1142 C.ar    1  UNL1        0.3019
     18 N          62.7446   94.6749    0.3865 N.ar    1  UNL1       -0.1519
     19 O          63.9038   95.3047   -0.3272 O.co2   1  UNL1       -0.6187
     20 C          61.9464   95.4752    1.3726 C.ar    1  UNL1        0.3019
     21 C          60.7872   94.8454    2.0864 C.ar    1  UNL1        0.0817
     22 C          62.2400   89.3800   10.7325 C.2     1  UNL1       -0.0253
     23 C          62.6647   88.4316   11.8142 C.2     1  UNL1       -0.0303
     24 C          63.5507   88.9101   12.9259 C.3     1  UNL1        0.0257
     25 C          64.0121   90.3371   12.9559 C.3     1  UNL1        0.0050
     26 C          63.5874   91.2856   11.8742 C.3     1  UNL1        0.0050
     27 C          62.7013   90.8069   10.7625 C.3     1  UNL1        0.0261
     28 C          61.9917   85.6016   10.8477 C.2     1  UNL1        0.2837
     29 O          62.7951   85.3980    9.5974 O.2     1  UNL1       -0.2665
     30 N          60.9481   86.6777   10.9017 N.am    1  UNL1       -0.2779
     31 H          60.4208   86.8113   11.7223 H       1  UNL1        0.1553
     32 C          62.6577   82.7876   13.4366 C.ar    1  UNL1        0.1469
     33 C          62.5453   83.9852   14.3328 C.ar    1  UNL1        0.1282
     34 N          62.2821   85.1851   13.4721 N.ar    1  UNL1       -0.2205
     35 C          62.2319   84.7291   12.0439 C.ar    1  UNL1        0.1958
     36 N          62.4640   83.2473   12.0221 N.ar    1  UNL1       -0.3257
     37 H          62.4855   82.6767   11.2201 H       1  UNL1        0.1682
     38 N          63.1785   79.9678   14.3187 N.1     1  UNL1       -0.1893
     39 C          62.9181   81.3777   13.8777 C.1     1  UNL1        0.1194
@<TRIPOS>UNITY_ATOM_ATTR
18 1
charge 1
19 1
charge -1
@<TRIPOS>BOND
     1    38    39    3
     2    39    32    1
     3    32    33   ar
     4    33    34   ar
     5    34    35   ar
     6    35    28    1
     7    28    29    2
     8    28    30   am
     9    30     1    1
    10     1     2   ar
    11     2     3   ar
    12     3     4   ar
    13     4     7    1
    14     7     8    1
    15     8     9    1
    16     9    10    1
    17    10    11   am
    18    11    12    2
    19    11    15    1
    20    15    16   ar
    21    16    17   ar
    22    17    18   ar
    23    18    19    1
    24    18    20   ar
    25    20    21   ar
    26    10    13    1
    27    13    14    1
    28     4     5   ar
    29     5     6   ar
    30     6    22    1
    31    22    23    2
    32    23    24    1
    33    24    25    1
    34    25    26    1
    35    26    27    1
    36    35    36   ar
    37    36    32   ar
    38     6     1   ar
    39    27    22    1
    40    14     7    1
    41    21    15   ar
    42    30    31    1
    43    36    37    1
