@<TRIPOS>MOLECULE
*****
 33 36 0 0 0
SMALL
GASTEIGER

@<TRIPOS>ATOM
      1 C          60.9764   89.1220   10.7631 C.ar    1  UNL1        0.1391
      2 C          61.3957   89.9411    9.5785 C.ar    1  UNL1        0.0369
      3 C          62.5599   90.8802    9.6903 C.ar    1  UNL1        0.0031
      4 C          63.3050   91.0002   10.9866 C.ar    1  UNL1       -0.0001
      5 C          64.4693   91.9394   11.0983 C.ar    1  UNL1       -0.0024
      6 C          65.2144   92.0594   12.3946 C.ar    1  UNL1       -0.0004
      7 C          64.7951   91.2403   13.5793 C.ar    1  UNL1       -0.0024
      8 C          63.6308   90.3012   13.4675 C.ar    1  UNL1       -0.0002
      9 C          62.8858   90.1811   12.1712 C.ar    1  UNL1        0.0030
     10 C          61.7215   89.2420   12.0595 C.ar    1  UNL1        0.0369
     11 O          59.8121   88.1829   10.6515 O.3     1  UNL1       -0.4706
     12 C          59.8479   87.0585    9.6592 C.3     1  UNL1        0.2320
     13 C          62.8459   84.6756   10.7003 C.ar    1  UNL1        0.0754
     14 C          63.4889   84.4302    9.3676 C.ar    1  UNL1        0.0064
     15 C          62.9183   85.0609    8.1320 C.ar    1  UNL1        0.0000
     16 C          61.7047   85.9370    8.2292 C.ar    1  UNL1       -0.0007
     17 C          61.0616   86.1824    9.5620 C.ar    1  UNL1        0.0214
     18 C          61.6323   85.5517   10.7975 C.ar    1  UNL1        0.0057
     19 C          63.4166   84.0449   11.9359 C.2     1  UNL1        0.3413
     20 O          64.4080   82.9256   11.8172 O.2     1  UNL1       -0.2449
     21 C          64.0319   84.8705   14.3212 C.3     1  UNL1        0.2560
     22 O          62.9958   84.5336   13.2902 O.3     1  UNL1       -0.4413
     23 C          66.3786   92.9985   12.5063 C.3     1  UNL1        0.1240
     24 N          67.2552   92.9650   13.7231 N.ar    1  UNL1       -0.3045
     25 C          67.1359   93.8604   14.9206 C.ar    1  UNL1        0.0983
     26 C          68.2119   93.4790   15.8936 C.ar    1  UNL1        0.1193
     27 N          68.9962   92.3478   15.2975 N.ar    1  UNL1       -0.2223
     28 C          68.4049   92.0302   13.9561 C.ar    1  UNL1        0.1788
     29 C          66.6664   93.9711   11.4012 C.3     1  UNL1        0.0827
     30 C          66.0825   95.3521   11.4465 C.3     1  UNL1        0.0197
     31 N          67.5381   93.5628   10.2508 N.3     1  UNL1       -0.2696
     32 C          68.1125   92.1781   10.1996 C.3     1  UNL1        0.0897
     33 C          67.8355   94.5393    9.1516 C.3     1  UNL1        0.0897
@<TRIPOS>BOND
     1    21    22    1
     2    22    19    1
     3    19    20    2
     4    19    13    1
     5    13    14   ar
     6    14    15   ar
     7    15    16   ar
     8    16    17   ar
     9    17    12    1
    10    12    11    1
    11    11     1    1
    12     1     2   ar
    13     2     3   ar
    14     3     4   ar
    15     4     5   ar
    16     5     6   ar
    17     6    23    1
    18    23    29    1
    19    29    30    1
    20    29    31    1
    21    31    32    1
    22    31    33    1
    23    23    24    1
    24    24    25   ar
    25    25    26   ar
    26    26    27   ar
    27    27    28   ar
    28     6     7   ar
    29     7     8   ar
    30     8     9   ar
    31     9    10   ar
    32    17    18   ar
    33    18    13   ar
    34    10     1   ar
    35     9     4   ar
    36    28    24   ar
@<TRIPOS>MOLECULE
*****
 33 36 0 0 0
SMALL
GASTEIGER

@<TRIPOS>ATOM
      1 C          60.9271   89.0305   10.6452 C.ar    1  UNL1        0.1391
      2 C          61.3108   89.9614    9.5334 C.ar    1  UNL1        0.0369
      3 C          62.4442   90.9259    9.7203 C.ar    1  UNL1        0.0031
      4 C          63.1939   90.9596   11.0190 C.ar    1  UNL1       -0.0001
      5 C          64.3274   91.9242   11.2058 C.ar    1  UNL1       -0.0024
      6 C          65.0772   91.9579   12.5046 C.ar    1  UNL1       -0.0004
      7 C          64.6935   91.0270   13.6165 C.ar    1  UNL1       -0.0024
      8 C          63.5601   90.0624   13.4296 C.ar    1  UNL1       -0.0002
      9 C          62.8103   90.0287   12.1308 C.ar    1  UNL1        0.0030
     10 C          61.6769   89.0642   11.9440 C.ar    1  UNL1        0.0369
     11 O          59.7936   88.0659   10.4584 O.3     1  UNL1       -0.4706
     12 C          59.9159   86.9483    9.4655 C.3     1  UNL1        0.2320
     13 C          62.8708   84.6305   10.7488 C.ar    1  UNL1        0.0754
     14 C          63.5786   84.3341    9.4600 C.ar    1  UNL1        0.0064
     15 C          63.0656   84.9090    8.1730 C.ar    1  UNL1        0.0000
     16 C          61.8447   85.7804    8.1748 C.ar    1  UNL1       -0.0007
     17 C          61.1368   86.0768    9.4636 C.ar    1  UNL1        0.0214
     18 C          61.6499   85.5019   10.7506 C.ar    1  UNL1        0.0057
     19 C          63.3838   84.0556   12.0357 C.2     1  UNL1        0.3413
     20 O          64.3150   82.8800   12.0134 O.2     1  UNL1       -0.2449
     21 C          64.0032   85.0648   14.3482 C.3     1  UNL1        0.2560
     22 O          62.9656   84.6564   13.3450 O.3     1  UNL1       -0.4413
     23 C          66.2106   92.9224   12.6914 C.3     1  UNL1        0.1240
     24 N          66.5426   93.9081   11.6106 N.ar    1  UNL1       -0.3045
     25 C          67.1940   93.5904   10.2973 C.ar    1  UNL1        0.0983
     26 C          67.3355   94.8704    9.5282 C.ar    1  UNL1        0.1193
     27 N          66.7715   95.9793   10.3662 N.ar    1  UNL1       -0.2223
     28 C          66.2815   95.3846   11.6532 C.ar    1  UNL1        0.1788
     29 C          67.0121   92.9014   13.9592 C.3     1  UNL1        0.0827
     30 C          66.4025   93.3887   15.2401 C.3     1  UNL1        0.0197
     31 N          68.4233   92.3929   13.9460 N.3     1  UNL1       -0.2696
     32 C          68.9154   91.5764   12.7880 C.3     1  UNL1        0.0897
     33 C          69.3422   92.7010   15.0909 C.3     1  UNL1        0.0897
@<TRIPOS>BOND
     1    21    22    1
     2    22    19    1
     3    19    20    2
     4    19    13    1
     5    13    14   ar
     6    14    15   ar
     7    15    16   ar
     8    16    17   ar
     9    17    12    1
    10    12    11    1
    11    11     1    1
    12     1     2   ar
    13     2     3   ar
    14     3     4   ar
    15     4     5   ar
    16     5     6   ar
    17     6    23    1
    18    23    29    1
    19    29    30    1
    20    29    31    1
    21    31    32    1
    22    31    33    1
    23    23    24    1
    24    24    25   ar
    25    25    26   ar
    26    26    27   ar
    27    27    28   ar
    28     6     7   ar
    29     7     8   ar
    30     8     9   ar
    31     9    10   ar
    32    17    18   ar
    33    18    13   ar
    34    10     1   ar
    35     9     4   ar
    36    28    24   ar
@<TRIPOS>MOLECULE
*****
 33 36 0 0 0
SMALL
GASTEIGER

@<TRIPOS>ATOM
      1 C          61.9483   88.1397   11.5317 C.ar    1  UNL1        0.1391
      2 C          62.7294   87.9957   12.8042 C.ar    1  UNL1        0.0369
      3 C          63.7621   89.0201   13.1704 C.ar    1  UNL1        0.0031
      4 C          64.0137   90.1885   12.2640 C.ar    1  UNL1       -0.0001
      5 C          65.0465   91.2129   12.6303 C.ar    1  UNL1       -0.0024
      6 C          65.2982   92.3814   11.7239 C.ar    1  UNL1       -0.0004
      7 C          64.5171   92.5254   10.4514 C.ar    1  UNL1       -0.0024
      8 C          63.4844   91.5010   10.0853 C.ar    1  UNL1       -0.0002
      9 C          63.2327   90.3326   10.9916 C.ar    1  UNL1        0.0030
     10 C          62.2000   89.3082   10.6254 C.ar    1  UNL1        0.0369
     11 O          60.9156   87.1153   11.1655 O.3     1  UNL1       -0.4706
     12 C          61.2809   85.9690   10.2698 C.3     1  UNL1        0.2320
     13 C          63.4733   83.6215   12.6006 C.ar    1  UNL1        0.0754
     14 C          64.3763   82.9809   11.5886 C.ar    1  UNL1        0.0064
     15 C          64.2476   83.3363   10.1371 C.ar    1  UNL1        0.0000
     16 C          63.2158   84.3323    9.6974 C.ar    1  UNL1       -0.0007
     17 C          62.3128   84.9729   10.7094 C.ar    1  UNL1        0.0214
     18 C          62.4415   84.6175   12.1610 C.ar    1  UNL1        0.0057
     19 C          63.6021   83.2661   14.0522 C.2     1  UNL1        0.3413
     20 O          64.2280   84.2367   15.0093 O.2     1  UNL1       -0.2449
     21 C          61.7449   81.4517   14.1446 C.3     1  UNL1        0.2560
     22 O          63.1049   81.9401   14.5467 O.3     1  UNL1       -0.4413
     23 C          66.3309   93.4058   12.0901 C.3     1  UNL1        0.1240
     24 N          67.1319   93.2467   13.3483 N.ar    1  UNL1       -0.3045
     25 C          66.8409   93.8993   14.6672 C.ar    1  UNL1        0.0983
     26 C          67.8938   93.4631   15.6425 C.ar    1  UNL1        0.1193
     27 N          68.8354   92.5409   14.9265 N.ar    1  UNL1       -0.2223
     28 C          68.3646   92.4072   13.5086 C.ar    1  UNL1        0.1788
     29 C          66.5626   94.5893   11.1980 C.3     1  UNL1        0.0827
     30 C          65.9687   95.9210   11.5495 C.3     1  UNL1        0.0197
     31 N          67.3883   94.4409    9.9545 N.3     1  UNL1       -0.2696
     32 C          67.4722   95.5701    8.9708 C.3     1  UNL1        0.0897
     33 C          68.1301   93.1632    9.6949 C.3     1  UNL1        0.0897
@<TRIPOS>BOND
     1    21    22    1
     2    22    19    1
     3    19    20    2
     4    19    13    1
     5    13    14   ar
     6    14    15   ar
     7    15    16   ar
     8    16    17   ar
     9    17    12    1
    10    12    11    1
    11    11     1    1
    12     1     2   ar
    13     2     3   ar
    14     3     4   ar
    15     4     5   ar
    16     5     6   ar
    17     6    23    1
    18    23    29    1
    19    29    30    1
    20    29    31    1
    21    31    32    1
    22    31    33    1
    23    23    24    1
    24    24    25   ar
    25    25    26   ar
    26    26    27   ar
    27    27    28   ar
    28     6     7   ar
    29     7     8   ar
    30     8     9   ar
    31     9    10   ar
    32    17    18   ar
    33    18    13   ar
    34    10     1   ar
    35     9     4   ar
    36    28    24   ar
@<TRIPOS>MOLECULE
*****
 33 36 0 0 0
SMALL
GASTEIGER

@<TRIPOS>ATOM
      1 C          64.7995   91.4233   14.3461 C.ar    1  UNL1        0.1391
      2 C          64.8177   90.0678   14.9880 C.ar    1  UNL1        0.0369
      3 C          64.2254   88.8907   14.2714 C.ar    1  UNL1        0.0031
      4 C          63.6150   89.0691   12.9129 C.ar    1  UNL1       -0.0001
      5 C          63.0227   87.8919   12.1964 C.ar    1  UNL1       -0.0024
      6 C          62.4123   88.0703   10.8378 C.ar    1  UNL1       -0.0004
      7 C          62.3941   89.4259   10.1959 C.ar    1  UNL1       -0.0024
      8 C          62.9864   90.6030   10.9125 C.ar    1  UNL1       -0.0002
      9 C          63.5968   90.4246   12.2710 C.ar    1  UNL1        0.0030
     10 C          64.1891   91.6018   12.9876 C.ar    1  UNL1        0.0369
     11 O          65.3918   92.6006   15.0627 O.3     1  UNL1       -0.4706
     12 C          66.5801   93.3102   14.4846 C.3     1  UNL1        0.2320
     13 C          66.5491   94.3495   10.6546 C.ar    1  UNL1        0.0754
     14 C          67.3185   93.2144   10.0466 C.ar    1  UNL1        0.0064
     15 C          67.8418   92.1113   10.9180 C.ar    1  UNL1        0.0000
     16 C          67.5957   92.1432   12.3973 C.ar    1  UNL1       -0.0007
     17 C          66.8263   93.2783   13.0052 C.ar    1  UNL1        0.0214
     18 C          66.3030   94.3814   12.1338 C.ar    1  UNL1        0.0057
     19 C          66.0258   95.4526    9.7832 C.2     1  UNL1        0.3413
     20 O          64.9391   96.3553   10.2875 O.2     1  UNL1       -0.2449
     21 C          67.4356   96.8554    8.1115 C.3     1  UNL1        0.2560
     22 O          66.5891   95.6530    8.4075 O.3     1  UNL1       -0.4413
     23 C          61.8200   86.8932   10.1213 C.3     1  UNL1        0.1240
     24 N          60.7323   87.1007    9.1094 N.ar    1  UNL1       -0.3045
     25 C          60.1028   88.4134    8.7483 C.ar    1  UNL1        0.0983
     26 C          59.0645   88.1560    7.6968 C.ar    1  UNL1        0.1193
     27 N          59.0523   86.6841    7.4080 N.ar    1  UNL1       -0.2223
     28 C          60.0831   86.0319    8.2810 C.ar    1  UNL1        0.1788
     29 C          62.3154   85.5084   10.4165 C.3     1  UNL1        0.0827
     30 C          61.9928   84.8606   11.7303 C.3     1  UNL1        0.0197
     31 N          63.1336   84.7715    9.3978 N.3     1  UNL1       -0.2696
     32 C          63.8952   83.5417    9.7947 C.3     1  UNL1        0.0897
     33 C          63.1901   85.2645    7.9822 C.3     1  UNL1        0.0897
@<TRIPOS>BOND
     1    21    22    1
     2    22    19    1
     3    19    20    2
     4    19    13    1
     5    13    14   ar
     6    14    15   ar
     7    15    16   ar
     8    16    17   ar
     9    17    12    1
    10    12    11    1
    11    11     1    1
    12     1     2   ar
    13     2     3   ar
    14     3     4   ar
    15     4     5   ar
    16     5     6   ar
    17     6    23    1
    18    23    29    1
    19    29    30    1
    20    29    31    1
    21    31    32    1
    22    31    33    1
    23    23    24    1
    24    24    25   ar
    25    25    26   ar
    26    26    27   ar
    27    27    28   ar
    28     6     7   ar
    29     7     8   ar
    30     8     9   ar
    31     9    10   ar
    32    17    18   ar
    33    18    13   ar
    34    10     1   ar
    35     9     4   ar
    36    28    24   ar
@<TRIPOS>MOLECULE
*****
 33 36 0 0 0
SMALL
GASTEIGER

@<TRIPOS>ATOM
      1 C          60.1829   88.8957    8.4230 C.ar    1  UNL1        0.1391
      2 C          59.8382   87.4810    8.0632 C.ar    1  UNL1        0.0369
      3 C          60.3999   86.3449    8.8656 C.ar    1  UNL1        0.0031
      4 C          61.3061   86.6237   10.0279 C.ar    1  UNL1       -0.0001
      5 C          61.8678   85.4876   10.8304 C.ar    1  UNL1       -0.0024
      6 C          62.7740   85.7664   11.9927 C.ar    1  UNL1       -0.0004
      7 C          63.1187   87.1812   12.3526 C.ar    1  UNL1       -0.0024
      8 C          62.5570   88.3173   11.5501 C.ar    1  UNL1       -0.0002
      9 C          61.6508   88.0385   10.3878 C.ar    1  UNL1        0.0030
     10 C          61.0891   89.1745    9.5853 C.ar    1  UNL1        0.0369
     11 O          59.6212   90.0319    7.6206 O.3     1  UNL1       -0.4706
     12 C          59.2469   89.8219    6.1833 C.3     1  UNL1        0.2320
     13 C          61.5714   91.8119    3.6561 C.ar    1  UNL1        0.0754
     14 C          60.5842   92.7688    3.0564 C.ar    1  UNL1        0.0064
     15 C          59.1512   92.7434    3.4990 C.ar    1  UNL1        0.0000
     16 C          58.7055   91.7612    4.5413 C.ar    1  UNL1       -0.0007
     17 C          59.6927   90.8042    5.1410 C.ar    1  UNL1        0.0214
     18 C          61.1257   90.8296    4.6983 C.ar    1  UNL1        0.0057
     19 C          63.0044   91.8372    3.2134 C.2     1  UNL1        0.3413
     20 O          63.8758   90.6346    3.4240 O.2     1  UNL1       -0.2449
     21 C          64.2887   92.9541    1.2505 C.3     1  UNL1        0.2560
     22 O          63.5660   93.0652    2.5602 O.3     1  UNL1       -0.4413
     23 C          63.3356   84.6303   12.7952 C.3     1  UNL1        0.1240
     24 N          63.2439   83.2267   12.2742 N.ar    1  UNL1       -0.3045
     25 C          63.8802   82.7090   11.0184 C.ar    1  UNL1        0.0983
     26 C          63.5294   81.2567   10.8856 C.ar    1  UNL1        0.1193
     27 N          62.6763   80.8767   12.0594 N.ar    1  UNL1       -0.2223
     28 C          62.4999   82.0943   12.9176 C.ar    1  UNL1        0.1788
     29 C          63.9890   84.8979   14.1187 C.3     1  UNL1        0.0827
     30 C          65.4831   84.8471   14.2414 C.3     1  UNL1        0.0197
     31 N          63.1482   85.2163   15.3194 N.3     1  UNL1       -0.2696
     32 C          61.9179   84.4087   15.6090 C.3     1  UNL1        0.0897
     33 C          63.5379   86.3425   16.2305 C.3     1  UNL1        0.0897
@<TRIPOS>BOND
     1    21    22    1
     2    22    19    1
     3    19    20    2
     4    19    13    1
     5    13    14   ar
     6    14    15   ar
     7    15    16   ar
     8    16    17   ar
     9    17    12    1
    10    12    11    1
    11    11     1    1
    12     1     2   ar
    13     2     3   ar
    14     3     4   ar
    15     4     5   ar
    16     5     6   ar
    17     6    23    1
    18    23    29    1
    19    29    30    1
    20    29    31    1
    21    31    32    1
    22    31    33    1
    23    23    24    1
    24    24    25   ar
    25    25    26   ar
    26    26    27   ar
    27    27    28   ar
    28     6     7   ar
    29     7     8   ar
    30     8     9   ar
    31     9    10   ar
    32    17    18   ar
    33    18    13   ar
    34    10     1   ar
    35     9     4   ar
    36    28    24   ar
@<TRIPOS>MOLECULE
*****
 33 36 0 0 0
SMALL
GASTEIGER

@<TRIPOS>ATOM
      1 C          59.9234   88.9739    8.1289 C.ar    1  UNL1        0.1391
      2 C          59.5298   87.5620    7.8104 C.ar    1  UNL1        0.0369
      3 C          60.0807   86.4283    8.6235 C.ar    1  UNL1        0.0031
      4 C          61.0252   86.7065    9.7551 C.ar    1  UNL1       -0.0001
      5 C          61.5761   85.5727   10.5682 C.ar    1  UNL1       -0.0024
      6 C          62.5207   85.8510   11.6998 C.ar    1  UNL1       -0.0004
      7 C          62.9142   87.2630   12.0182 C.ar    1  UNL1       -0.0024
      8 C          62.3633   88.3967   11.2051 C.ar    1  UNL1       -0.0002
      9 C          61.4188   88.1185   10.0736 C.ar    1  UNL1        0.0030
     10 C          60.8679   89.2522    9.2605 C.ar    1  UNL1        0.0369
     11 O          59.3724   90.1077    7.3158 O.3     1  UNL1       -0.4706
     12 C          59.1343   89.9299    5.8455 C.3     1  UNL1        0.2320
     13 C          61.6809   91.8894    3.5162 C.ar    1  UNL1        0.0754
     14 C          60.7782   92.9291    2.9211 C.ar    1  UNL1        0.0064
     15 C          59.3276   92.9691    3.3007 C.ar    1  UNL1        0.0000
     16 C          58.7796   91.9694    4.2755 C.ar    1  UNL1       -0.0007
     17 C          59.6823   90.9297    4.8707 C.ar    1  UNL1        0.0214
     18 C          61.1329   90.8897    4.4910 C.ar    1  UNL1        0.0057
     19 C          63.1315   91.8494    3.1366 C.2     1  UNL1        0.3413
     20 O          63.9492   90.6259    3.4267 O.2     1  UNL1       -0.2449
     21 C          63.7914   93.1218    0.9697 C.3     1  UNL1        0.2560
     22 O          63.7643   93.0330    2.4668 O.3     1  UNL1       -0.4413
     23 C          63.0716   84.7173   12.5129 C.3     1  UNL1        0.1240
     24 N          63.1996   84.8545   14.0011 N.ar    1  UNL1       -0.3045
     25 C          62.1772   84.4371   15.0162 C.ar    1  UNL1        0.0983
     26 C          62.7181   84.7579   16.3780 C.ar    1  UNL1        0.1193
     27 N          64.0749   85.3735   16.2045 N.ar    1  UNL1       -0.2223
     28 C          64.3725   85.4332   14.7355 C.ar    1  UNL1        0.1788
     29 C          63.4945   83.4463   11.8377 C.3     1  UNL1        0.0827
     30 C          64.0676   83.4878   10.4522 C.3     1  UNL1        0.0197
     31 N          63.3444   82.1338   12.5483 N.3     1  UNL1       -0.2696
     32 C          62.0017   81.4689   12.6196 C.3     1  UNL1        0.0897
     33 C          64.5370   81.4862   13.1874 C.3     1  UNL1        0.0897
@<TRIPOS>BOND
     1    21    22    1
     2    22    19    1
     3    19    20    2
     4    19    13    1
     5    13    14   ar
     6    14    15   ar
     7    15    16   ar
     8    16    17   ar
     9    17    12    1
    10    12    11    1
    11    11     1    1
    12     1     2   ar
    13     2     3   ar
    14     3     4   ar
    15     4     5   ar
    16     5     6   ar
    17     6    23    1
    18    23    29    1
    19    29    30    1
    20    29    31    1
    21    31    32    1
    22    31    33    1
    23    23    24    1
    24    24    25   ar
    25    25    26   ar
    26    26    27   ar
    27    27    28   ar
    28     6     7   ar
    29     7     8   ar
    30     8     9   ar
    31     9    10   ar
    32    17    18   ar
    33    18    13   ar
    34    10     1   ar
    35     9     4   ar
    36    28    24   ar
