@<TRIPOS>MOLECULE
*****
 37 40 0 0 0
SMALL
GASTEIGER

@<TRIPOS>ATOM
      1 N          62.2079   88.6945   10.8685 N.pl3   1  UNL1       -0.2926
      2 C          62.3373   87.2424   11.2213 C.3     1  UNL1        0.0922
      3 C          61.5556   86.2130   10.4600 C.3     1  UNL1        0.0220
      4 C          60.6446   86.6359    9.3459 C.3     1  UNL1        0.0126
      5 C          60.5152   88.0881    8.9932 C.3     1  UNL1        0.0963
      6 C          61.2968   89.1174    9.7545 C.3     1  UNL1        0.1012
      7 C          64.5788   91.7790   11.6525 C.ar    1  UNL1        0.1362
      8 C          63.7972   90.7497   10.8913 C.ar    1  UNL1        0.0686
      9 C          62.9895   89.7239   11.6298 C.ar    1  UNL1        0.1361
     10 N          62.9635   89.7274   13.1296 N.ar    1  UNL1       -0.2083
     11 C          63.7451   90.7567   13.8908 C.ar    1  UNL1        0.2374
     12 N          64.5528   91.7825   13.1523 N.ar    1  UNL1       -0.2083
     13 C          67.8094   95.8822    8.6985 C.3     1  UNL1        0.0897
     14 N          67.0018   94.8564    9.4370 N.3     1  UNL1       -0.2686
     15 C          65.7661   95.2682   10.1810 C.3     1  UNL1        0.0939
     16 C          64.9585   94.2424   10.9195 C.3     1  UNL1        0.1095
     17 N          65.3865   92.8048   10.9140 N.pl3   1  UNL1       -0.2903
     18 C          66.6221   92.3930   10.1700 C.3     1  UNL1        0.1095
     19 C          67.4298   93.4188    9.4315 C.3     1  UNL1        0.0939
     20 C          63.7192   90.7602   15.3906 C.3     1  UNL1        0.4524
     21 F          63.6932   90.7638   16.8904 F       1  UNL1       -0.1632
     22 F          64.8199   91.7791   15.4072 F       1  UNL1       -0.1632
     23 F          62.6184   89.7414   15.3740 F       1  UNL1       -0.1632
     24 C          59.6041   88.5110    7.8791 C.2     1  UNL1        0.2237
     25 O          58.3253   87.7669    7.6326 O.2     1  UNL1       -0.2751
     26 N          59.9720   89.6781    7.0114 N.am    1  UNL1       -0.3040
     27 H          60.8113   90.1664    7.1732 H       1  UNL1        0.1494
     28 C          59.0609   90.1009    5.8974 C.3     1  UNL1        0.0941
     29 C          59.1162   91.5062    5.3757 C.3     1  UNL1        0.0492
     30 C          60.1486   91.8878    4.3567 C.ar    1  UNL1       -0.0013
     31 C          61.4904   91.2172    4.3609 C.ar    1  UNL1       -0.0004
     32 C          62.5228   91.5989    3.3418 C.ar    1  UNL1        0.0293
     33 C          62.2135   92.6511    2.3186 C.ar    1  UNL1        0.1491
     34 N          60.8718   93.3217    2.3144 N.ar    1  UNL1       -0.2339
     35 C          59.8394   92.9401    3.3334 C.ar    1  UNL1        0.0954
     36 C          63.2459   93.0328    1.2995 C.1     1  UNL1        0.1198
     37 N          64.2783   93.4144    0.2805 N.1     1  UNL1       -0.1893
@<TRIPOS>BOND
     1    13    14    1
     2    14    15    1
     3    15    16    1
     4    16    17    1
     5    17     7    1
     6     7     8   ar
     7     8     9   ar
     8     9     1    1
     9     1     2    1
    10     2     3    1
    11     3     4    1
    12     4     5    1
    13     5    24    1
    14    24    25    2
    15    24    26   am
    16    26    28    1
    17    28    29    1
    18    29    30    1
    19    30    31   ar
    20    31    32   ar
    21    32    33   ar
    22    33    36    1
    23    36    37    3
    24    33    34   ar
    25    34    35   ar
    26     5     6    1
    27     9    10   ar
    28    10    11   ar
    29    11    20    1
    30    20    21    1
    31    20    22    1
    32    20    23    1
    33    11    12   ar
    34    17    18    1
    35    18    19    1
    36    19    14    1
    37    12     7   ar
    38     6     1    1
    39    35    30   ar
    40    26    27    1
@<TRIPOS>MOLECULE
*****
 37 40 0 0 0
SMALL
GASTEIGER

@<TRIPOS>ATOM
      1 N          62.4041   86.5611   10.2142 N.pl3   1  UNL1       -0.2926
      2 C          62.3795   86.5825    8.7146 C.3     1  UNL1        0.0922
      3 C          62.7711   85.3587    7.9405 C.3     1  UNL1        0.0220
      4 C          63.1873   84.1136    8.6662 C.3     1  UNL1        0.0126
      5 C          63.2119   84.0923   10.1659 C.3     1  UNL1        0.0963
      6 C          62.8203   85.3160   10.9398 C.3     1  UNL1        0.1012
      7 C          62.6790   89.8985   12.3441 C.ar    1  UNL1        0.1362
      8 C          63.0706   88.6748   11.5700 C.ar    1  UNL1        0.0686
      9 C          62.0124   87.7849   10.9883 C.ar    1  UNL1        0.1361
     10 N          60.5628   88.1187   11.1805 N.ar    1  UNL1       -0.2083
     11 C          60.1712   89.3424   11.9546 C.ar    1  UNL1        0.2374
     12 N          61.2293   90.2323   12.5363 N.ar    1  UNL1       -0.2083
     13 C          66.9114   93.4582   14.6712 C.3     1  UNL1        0.0897
     14 N          65.8533   92.5682   14.0894 N.3     1  UNL1       -0.2686
     15 C          65.1388   91.5816   14.9645 C.3     1  UNL1        0.0939
     16 C          64.0807   90.6917   14.3827 C.3     1  UNL1        0.1095
     17 N          63.7371   90.7884   12.9258 N.pl3   1  UNL1       -0.2903
     18 C          64.4517   91.7751   12.0507 C.3     1  UNL1        0.1095
     19 C          65.5098   92.6650   12.6325 C.3     1  UNL1        0.0939
     20 C          58.7215   89.6762   12.1469 C.3     1  UNL1        0.4524
     21 F          57.2719   90.0101   12.3391 F       1  UNL1       -0.1632
     22 F          58.8930   90.9058   11.3051 F       1  UNL1       -0.1632
     23 F          58.5500   88.4467   12.9887 F       1  UNL1       -0.1632
     24 C          63.6281   82.8472   10.8915 C.2     1  UNL1        0.2237
     25 O          65.0828   82.5665   11.1258 O.2     1  UNL1       -0.2751
     26 N          62.5895   81.8828   11.3829 N.am    1  UNL1       -0.3040
     27 H          61.6347   82.0671   11.2291 H       1  UNL1        0.1494
     28 C          63.0057   80.6378   12.1085 C.3     1  UNL1        0.0941
     29 C          63.3970   80.7079   13.5548 C.3     1  UNL1        0.0492
     30 C          63.3112   82.0111   14.2927 C.ar    1  UNL1       -0.0013
     31 C          64.5538   82.8113   14.5486 C.ar    1  UNL1       -0.0004
     32 C          64.4679   84.1145   15.2864 C.ar    1  UNL1        0.0293
     33 C          63.1395   84.6174   15.7683 C.ar    1  UNL1        0.1491
     34 N          61.8969   83.8172   15.5124 N.ar    1  UNL1       -0.2339
     35 C          61.9827   82.5140   14.7746 C.ar    1  UNL1        0.0954
     36 C          63.0536   85.9206   16.5062 C.1     1  UNL1        0.1198
     37 N          62.9678   87.2237   17.2440 N.1     1  UNL1       -0.1893
@<TRIPOS>BOND
     1    13    14    1
     2    14    15    1
     3    15    16    1
     4    16    17    1
     5    17     7    1
     6     7     8   ar
     7     8     9   ar
     8     9     1    1
     9     1     2    1
    10     2     3    1
    11     3     4    1
    12     4     5    1
    13     5    24    1
    14    24    25    2
    15    24    26   am
    16    26    28    1
    17    28    29    1
    18    29    30    1
    19    30    31   ar
    20    31    32   ar
    21    32    33   ar
    22    33    36    1
    23    36    37    3
    24    33    34   ar
    25    34    35   ar
    26     5     6    1
    27     9    10   ar
    28    10    11   ar
    29    11    20    1
    30    20    21    1
    31    20    22    1
    32    20    23    1
    33    11    12   ar
    34    17    18    1
    35    18    19    1
    36    19    14    1
    37    12     7   ar
    38     6     1    1
    39    35    30   ar
    40    26    27    1
@<TRIPOS>MOLECULE
*****
 37 40 0 0 0
SMALL
GASTEIGER

@<TRIPOS>ATOM
      1 N          63.4307   89.9060   11.9375 N.pl3   1  UNL1       -0.2926
      2 C          62.4154   90.0554   10.8435 C.3     1  UNL1        0.0922
      3 C          61.5102   88.9100   10.4988 C.3     1  UNL1        0.0220
      4 C          61.6203   87.6153   11.2481 C.3     1  UNL1        0.0126
      5 C          62.6357   87.4659   12.3421 C.3     1  UNL1        0.0963
      6 C          63.5408   88.6112   12.6868 C.3     1  UNL1        0.1012
      7 C          65.7145   93.1285   11.5509 C.ar    1  UNL1        0.1362
      8 C          64.8094   91.9832   11.2063 C.ar    1  UNL1        0.0686
      9 C          64.3359   91.0513   12.2822 C.ar    1  UNL1        0.1361
     10 N          64.7677   91.2648   13.7027 N.ar    1  UNL1       -0.2083
     11 C          65.6729   92.4101   14.0473 C.ar    1  UNL1        0.2374
     12 N          66.1463   93.3420   12.9715 N.ar    1  UNL1       -0.2083
     13 C          67.6082   96.8560    7.2474 C.3     1  UNL1        0.0897
     14 N          67.1348   95.9241    8.3233 N.3     1  UNL1       -0.2686
     15 C          66.0513   96.3561    9.2663 C.3     1  UNL1        0.0939
     16 C          65.5778   95.4242   10.3422 C.3     1  UNL1        0.1095
     17 N          66.1879   94.0604   10.4750 N.pl3   1  UNL1       -0.2903
     18 C          67.2715   93.6284    9.5320 C.3     1  UNL1        0.1095
     19 C          67.7449   94.5603    8.4561 C.3     1  UNL1        0.0939
     20 C          66.1047   92.6236   15.4679 C.3     1  UNL1        0.4524
     21 F          66.5366   92.8372   16.8884 F       1  UNL1       -0.1632
     22 F          67.2907   93.4076   14.9896 F       1  UNL1       -0.1632
     23 F          64.9188   91.8396   15.9463 F       1  UNL1       -0.1632
     24 C          62.7458   86.1711   13.0914 C.2     1  UNL1        0.2237
     25 O          62.0148   84.9564   12.6013 O.2     1  UNL1       -0.2751
     26 N          63.5869   86.0911   14.3309 N.am    1  UNL1       -0.3040
     27 H          64.0667   86.8883   14.6525 H       1  UNL1        0.1494
     28 C          63.6971   84.7963   15.0802 C.3     1  UNL1        0.0941
     29 C          64.6266   83.7246   14.5931 C.3     1  UNL1        0.0492
     30 C          64.1936   82.7979   13.4959 C.ar    1  UNL1       -0.0013
     31 C          63.2785   81.6495   13.8017 C.ar    1  UNL1       -0.0004
     32 C          62.8455   80.7228   12.7045 C.ar    1  UNL1        0.0293
     33 C          63.3276   80.9446   11.3016 C.ar    1  UNL1        0.1491
     34 N          64.2427   82.0930   10.9958 N.ar    1  UNL1       -0.2339
     35 C          64.6757   83.0197   12.0930 C.ar    1  UNL1        0.0954
     36 C          62.8946   80.0179   10.2044 C.1     1  UNL1        0.1198
     37 N          62.4616   79.0912    9.1073 N.1     1  UNL1       -0.1893
@<TRIPOS>BOND
     1    13    14    1
     2    14    15    1
     3    15    16    1
     4    16    17    1
     5    17     7    1
     6     7     8   ar
     7     8     9   ar
     8     9     1    1
     9     1     2    1
    10     2     3    1
    11     3     4    1
    12     4     5    1
    13     5    24    1
    14    24    25    2
    15    24    26   am
    16    26    28    1
    17    28    29    1
    18    29    30    1
    19    30    31   ar
    20    31    32   ar
    21    32    33   ar
    22    33    36    1
    23    36    37    3
    24    33    34   ar
    25    34    35   ar
    26     5     6    1
    27     9    10   ar
    28    10    11   ar
    29    11    20    1
    30    20    21    1
    31    20    22    1
    32    20    23    1
    33    11    12   ar
    34    17    18    1
    35    18    19    1
    36    19    14    1
    37    12     7   ar
    38     6     1    1
    39    35    30   ar
    40    26    27    1
@<TRIPOS>MOLECULE
*****
 37 40 0 0 0
SMALL
GASTEIGER

@<TRIPOS>ATOM
      1 N          64.8973   90.5115   15.1162 N.pl3   1  UNL1       -0.2926
      2 C          63.7487   90.8435   16.0220 C.3     1  UNL1        0.0922
      3 C          62.7789   89.7731   16.4265 C.3     1  UNL1        0.0220
      4 C          62.9576   88.3707   15.9253 C.3     1  UNL1        0.0126
      5 C          64.1063   88.0387   15.0195 C.3     1  UNL1        0.0963
      6 C          65.0761   89.1091   14.6149 C.3     1  UNL1        0.1012
      7 C          66.6902   93.3343   12.9791 C.ar    1  UNL1        0.1362
      8 C          65.7204   92.2639   13.3837 C.ar    1  UNL1        0.0686
      9 C          65.8672   91.5819   14.7116 C.ar    1  UNL1        0.1361
     10 N          66.9837   91.9702   15.6348 N.ar    1  UNL1       -0.2083
     11 C          67.9535   93.0406   15.2302 C.ar    1  UNL1        0.2374
     12 N          67.8068   93.7226   13.9023 N.ar    1  UNL1       -0.2083
     13 C          66.1033   96.0625    7.6675 C.3     1  UNL1        0.0897
     14 N          66.2500   95.3804    8.9954 N.3     1  UNL1       -0.2686
     15 C          66.8610   94.0127    9.0726 C.3     1  UNL1        0.0939
     16 C          67.0078   93.3307   10.4005 C.3     1  UNL1        0.1095
     17 N          66.5435   94.0163   11.6512 N.pl3   1  UNL1       -0.2903
     18 C          65.9325   95.3840   11.5740 C.3     1  UNL1        0.1095
     19 C          65.7857   96.0661   10.2461 C.3     1  UNL1        0.0939
     20 C          69.0702   93.4289   16.1535 C.3     1  UNL1        0.4524
     21 F          70.1867   93.8173   17.0767 F       1  UNL1       -0.1632
     22 F          69.4634   91.9874   16.2842 F       1  UNL1       -0.1632
     23 F          68.6769   94.8705   16.0228 F       1  UNL1       -0.1632
     24 C          64.2850   86.6363   14.5182 C.2     1  UNL1        0.2237
     25 O          65.4235   85.7993   15.0215 O.2     1  UNL1       -0.2751
     26 N          63.3252   86.0708   13.5136 N.am    1  UNL1       -0.3040
     27 H          62.5780   86.6201   13.1833 H       1  UNL1        0.1494
     28 C          63.5040   84.6684   13.0123 C.3     1  UNL1        0.0941
     29 C          63.4071   84.3787   11.5438 C.3     1  UNL1        0.0492
     30 C          62.5342   85.2277   10.6679 C.ar    1  UNL1       -0.0013
     31 C          62.7472   85.2400    9.1832 C.ar    1  UNL1       -0.0004
     32 C          61.8743   86.0890    8.3072 C.ar    1  UNL1        0.0293
     33 C          60.7884   86.9257    8.9160 C.ar    1  UNL1        0.1491
     34 N          60.5754   86.9135   10.4007 N.ar    1  UNL1       -0.2339
     35 C          61.4483   86.0645   11.2767 C.ar    1  UNL1        0.0954
     36 C          59.9155   87.7747    8.0401 C.1     1  UNL1        0.1198
     37 N          59.0427   88.6237    7.1641 N.1     1  UNL1       -0.1893
@<TRIPOS>BOND
     1    13    14    1
     2    14    15    1
     3    15    16    1
     4    16    17    1
     5    17     7    1
     6     7     8   ar
     7     8     9   ar
     8     9     1    1
     9     1     2    1
    10     2     3    1
    11     3     4    1
    12     4     5    1
    13     5    24    1
    14    24    25    2
    15    24    26   am
    16    26    28    1
    17    28    29    1
    18    29    30    1
    19    30    31   ar
    20    31    32   ar
    21    32    33   ar
    22    33    36    1
    23    36    37    3
    24    33    34   ar
    25    34    35   ar
    26     5     6    1
    27     9    10   ar
    28    10    11   ar
    29    11    20    1
    30    20    21    1
    31    20    22    1
    32    20    23    1
    33    11    12   ar
    34    17    18    1
    35    18    19    1
    36    19    14    1
    37    12     7   ar
    38     6     1    1
    39    35    30   ar
    40    26    27    1
@<TRIPOS>MOLECULE
*****
 37 40 0 0 0
SMALL
GASTEIGER

@<TRIPOS>ATOM
      1 N          64.0098   90.8833   14.0101 N.pl3   1  UNL1       -0.2926
      2 C          63.6808   90.3143   15.3584 C.3     1  UNL1        0.0922
      3 C          62.4424   89.4880   15.5419 C.3     1  UNL1        0.0220
      4 C          61.5331   89.2307   14.3770 C.3     1  UNL1        0.0126
      5 C          61.8621   89.7998   13.0287 C.3     1  UNL1        0.0963
      6 C          63.1005   90.6261   12.8453 C.3     1  UNL1        0.1012
      7 C          66.6386   93.3993   12.4260 C.ar    1  UNL1        0.1362
      8 C          65.4003   92.5730   12.6095 C.ar    1  UNL1        0.0686
      9 C          65.2483   91.7097   13.8267 C.ar    1  UNL1        0.1361
     10 N          66.3346   91.6726   14.8603 N.ar    1  UNL1       -0.2083
     11 C          67.5729   92.4989   14.6768 C.ar    1  UNL1        0.2374
     12 N          67.7249   93.3623   13.4596 N.ar    1  UNL1       -0.2083
     13 C          67.2467   96.8527    7.5573 C.3     1  UNL1        0.0897
     14 N          67.0947   95.9894    8.7745 N.3     1  UNL1       -0.2686
     15 C          67.5241   94.5528    8.7334 C.3     1  UNL1        0.0939
     16 C          67.3721   93.6895    9.9506 C.3     1  UNL1        0.1095
     17 N          66.7906   94.2627   11.2088 N.pl3   1  UNL1       -0.2903
     18 C          66.3612   95.6993   11.2499 C.3     1  UNL1        0.1095
     19 C          66.5132   96.5626   10.0327 C.3     1  UNL1        0.0939
     20 C          68.6593   92.4619   15.7105 C.3     1  UNL1        0.4524
     21 F          69.7456   92.4249   16.7441 F       1  UNL1       -0.1632
     22 F          69.6897   92.6295   14.6335 F       1  UNL1       -0.1632
     23 F          67.6288   92.2943   16.7876 F       1  UNL1       -0.1632
     24 C          60.9527   89.5426   11.8638 C.2     1  UNL1        0.2237
     25 O          59.4724   89.4311   12.0783 O.2     1  UNL1       -0.2751
     26 N          61.5238   89.3970   10.4844 N.am    1  UNL1       -0.3040
     27 H          62.4954   89.4702   10.3436 H       1  UNL1        0.1494
     28 C          60.6144   89.1398    9.3195 C.3     1  UNL1        0.0941
     29 C          60.4172   87.7404    8.8167 C.3     1  UNL1        0.0492
     30 C          61.2923   86.6317    9.3217 C.ar    1  UNL1       -0.0013
     31 C          62.3041   86.0010    8.4115 C.ar    1  UNL1       -0.0004
     32 C          63.1791   84.8923    8.9165 C.ar    1  UNL1        0.0293
     33 C          63.0424   84.4142   10.3316 C.ar    1  UNL1        0.1491
     34 N          62.0306   85.0449   11.2418 N.ar    1  UNL1       -0.2339
     35 C          61.1555   86.1536   10.7369 C.ar    1  UNL1        0.0954
     36 C          63.9175   83.3055   10.8366 C.1     1  UNL1        0.1198
     37 N          64.7925   82.1968   11.3415 N.1     1  UNL1       -0.1893
@<TRIPOS>BOND
     1    13    14    1
     2    14    15    1
     3    15    16    1
     4    16    17    1
     5    17     7    1
     6     7     8   ar
     7     8     9   ar
     8     9     1    1
     9     1     2    1
    10     2     3    1
    11     3     4    1
    12     4     5    1
    13     5    24    1
    14    24    25    2
    15    24    26   am
    16    26    28    1
    17    28    29    1
    18    29    30    1
    19    30    31   ar
    20    31    32   ar
    21    32    33   ar
    22    33    36    1
    23    36    37    3
    24    33    34   ar
    25    34    35   ar
    26     5     6    1
    27     9    10   ar
    28    10    11   ar
    29    11    20    1
    30    20    21    1
    31    20    22    1
    32    20    23    1
    33    11    12   ar
    34    17    18    1
    35    18    19    1
    36    19    14    1
    37    12     7   ar
    38     6     1    1
    39    35    30   ar
    40    26    27    1
@<TRIPOS>MOLECULE
*****
 37 40 0 0 0
SMALL
GASTEIGER

@<TRIPOS>ATOM
      1 N          63.7649   87.7486   15.2175 N.pl3   1  UNL1       -0.2926
      2 C          63.3535   87.8189   16.6582 C.3     1  UNL1        0.0922
      3 C          63.0426   86.5597   17.4118 C.3     1  UNL1        0.0220
      4 C          63.1431   85.2302   16.7245 C.3     1  UNL1        0.0126
      5 C          63.5545   85.1599   15.2837 C.3     1  UNL1        0.0963
      6 C          63.8654   86.4191   14.5302 C.3     1  UNL1        0.1012
      7 C          65.4657   91.1870   14.2000 C.ar    1  UNL1        0.1362
      8 C          65.1548   89.9278   14.9534 C.ar    1  UNL1        0.0686
      9 C          64.0758   89.0079   14.4639 C.ar    1  UNL1        0.1361
     10 N          63.3078   89.3471   13.2210 N.ar    1  UNL1       -0.2083
     11 C          63.6187   90.6062   12.4675 C.ar    1  UNL1        0.2374
     12 N          64.6977   91.5262   12.9570 N.ar    1  UNL1       -0.2083
     13 C          69.7814   94.8667   16.1580 C.3     1  UNL1        0.0897
     14 N          68.7025   93.9468   15.6685 N.3     1  UNL1       -0.2686
     15 C          68.7337   92.4925   16.0346 C.3     1  UNL1        0.0939
     16 C          67.6547   91.5726   15.5451 C.3     1  UNL1        0.1095
     17 N          66.5446   92.1069   14.6895 N.pl3   1  UNL1       -0.2903
     18 C          66.5134   93.5612   14.3234 C.3     1  UNL1        0.1095
     19 C          67.5924   94.4811   14.8129 C.3     1  UNL1        0.0939
     20 C          62.8507   90.9455   11.2244 C.3     1  UNL1        0.4524
     21 F          62.0828   91.2848    9.9814 F       1  UNL1       -0.1632
     22 F          64.0778   91.5796   10.6394 F       1  UNL1       -0.1632
     23 F          61.6237   90.3115   11.8094 F       1  UNL1       -0.1632
     24 C          63.6550   83.8304   14.5964 C.2     1  UNL1        0.2237
     25 O          62.7761   82.6944   15.0286 O.2     1  UNL1       -0.2751
     26 N          64.6345   83.6370   13.4769 N.am    1  UNL1       -0.3040
     27 H          65.2114   84.3827   13.1932 H       1  UNL1        0.1494
     28 C          64.7350   82.3075   12.7896 C.3     1  UNL1        0.0941
     29 C          64.2489   82.1538   11.3790 C.3     1  UNL1        0.0492
     30 C          63.5001   83.2727   10.7176 C.ar    1  UNL1       -0.0013
     31 C          63.8374   83.6730    9.3119 C.ar    1  UNL1       -0.0004
     32 C          63.0886   84.7918    8.6505 C.ar    1  UNL1        0.0293
     33 C          62.0025   85.5105    9.3948 C.ar    1  UNL1        0.1491
     34 N          61.6653   85.1102   10.8005 N.ar    1  UNL1       -0.2339
     35 C          62.4141   83.9913   11.4619 C.ar    1  UNL1        0.0954
     36 C          61.2538   86.6294    8.7335 C.1     1  UNL1        0.1198
     37 N          60.5050   87.7482    8.0721 N.1     1  UNL1       -0.1893
@<TRIPOS>BOND
     1    13    14    1
     2    14    15    1
     3    15    16    1
     4    16    17    1
     5    17     7    1
     6     7     8   ar
     7     8     9   ar
     8     9     1    1
     9     1     2    1
    10     2     3    1
    11     3     4    1
    12     4     5    1
    13     5    24    1
    14    24    25    2
    15    24    26   am
    16    26    28    1
    17    28    29    1
    18    29    30    1
    19    30    31   ar
    20    31    32   ar
    21    32    33   ar
    22    33    36    1
    23    36    37    3
    24    33    34   ar
    25    34    35   ar
    26     5     6    1
    27     9    10   ar
    28    10    11   ar
    29    11    20    1
    30    20    21    1
    31    20    22    1
    32    20    23    1
    33    11    12   ar
    34    17    18    1
    35    18    19    1
    36    19    14    1
    37    12     7   ar
    38     6     1    1
    39    35    30   ar
    40    26    27    1
@<TRIPOS>MOLECULE
*****
 37 40 0 0 0
SMALL
GASTEIGER

@<TRIPOS>ATOM
      1 N          62.4719   87.6164   11.5627 N.pl3   1  UNL1       -0.2926
      2 C          63.1147   88.9365   11.8694 C.3     1  UNL1        0.0922
      3 C          62.7955   90.1389   11.0314 C.3     1  UNL1        0.0220
      4 C          61.8335   90.0212    9.8865 C.3     1  UNL1        0.0126
      5 C          61.1907   88.7010    9.5798 C.3     1  UNL1        0.0963
      6 C          61.5099   87.4987   10.4178 C.3     1  UNL1        0.1012
      7 C          63.0538   83.8398   12.6345 C.ar    1  UNL1        0.1362
      8 C          62.7346   85.0422   11.7965 C.ar    1  UNL1        0.0686
      9 C          62.7911   86.4139   12.4007 C.ar    1  UNL1        0.1361
     10 N          63.1668   86.5833   13.8430 N.ar    1  UNL1       -0.2083
     11 C          63.4860   85.3808   14.6810 C.ar    1  UNL1        0.2374
     12 N          63.4295   84.0091   14.0767 N.ar    1  UNL1       -0.2083
     13 C          62.8277   78.3528   10.2174 C.3     1  UNL1        0.0897
     14 N          62.8843   79.7246   10.8217 N.3     1  UNL1       -0.2686
     15 C          62.4683   79.9337   12.2476 C.3     1  UNL1        0.0939
     16 C          62.5249   81.3054   12.8518 C.3     1  UNL1        0.1095
     17 N          62.9973   82.4680   12.0302 N.pl3   1  UNL1       -0.2903
     18 C          63.4132   82.2589   10.6043 C.3     1  UNL1        0.1095
     19 C          63.3567   80.8872   10.0000 C.3     1  UNL1        0.0939
     20 C          63.8618   85.5501   16.1233 C.3     1  UNL1        0.4524
     21 F          64.2375   85.7194   17.5655 F       1  UNL1       -0.1632
     22 F          65.2405   85.9761   15.7141 F       1  UNL1       -0.1632
     23 F          62.4830   85.1242   16.5325 F       1  UNL1       -0.1632
     24 C          60.2287   88.5833    8.4349 C.2     1  UNL1        0.2237
     25 O          59.4660   87.3090    8.2241 O.2     1  UNL1       -0.2751
     26 N          60.0294   89.7400    7.5008 N.am    1  UNL1       -0.3040
     27 H          60.5299   90.5764    7.6392 H       1  UNL1        0.1494
     28 C          59.0673   89.6223    6.3560 C.3     1  UNL1        0.0941
     29 C          58.6984   90.8378    5.5583 C.3     1  UNL1        0.0492
     30 C          59.6879   91.4370    4.6034 C.ar    1  UNL1       -0.0013
     31 C          59.2364   92.4489    3.5924 C.ar    1  UNL1       -0.0004
     32 C          60.2259   93.0481    2.6375 C.ar    1  UNL1        0.0293
     33 C          61.6669   92.6354    2.6935 C.ar    1  UNL1        0.1491
     34 N          62.1184   91.6234    3.7045 N.ar    1  UNL1       -0.2339
     35 C          61.1289   91.0242    4.6594 C.ar    1  UNL1        0.0954
     36 C          62.6564   93.2345    1.7386 C.1     1  UNL1        0.1198
     37 N          63.6459   93.8337    0.7837 N.1     1  UNL1       -0.1893
@<TRIPOS>BOND
     1    13    14    1
     2    14    15    1
     3    15    16    1
     4    16    17    1
     5    17     7    1
     6     7     8   ar
     7     8     9   ar
     8     9     1    1
     9     1     2    1
    10     2     3    1
    11     3     4    1
    12     4     5    1
    13     5    24    1
    14    24    25    2
    15    24    26   am
    16    26    28    1
    17    28    29    1
    18    29    30    1
    19    30    31   ar
    20    31    32   ar
    21    32    33   ar
    22    33    36    1
    23    36    37    3
    24    33    34   ar
    25    34    35   ar
    26     5     6    1
    27     9    10   ar
    28    10    11   ar
    29    11    20    1
    30    20    21    1
    31    20    22    1
    32    20    23    1
    33    11    12   ar
    34    17    18    1
    35    18    19    1
    36    19    14    1
    37    12     7   ar
    38     6     1    1
    39    35    30   ar
    40    26    27    1
@<TRIPOS>MOLECULE
*****
 37 40 0 0 0
SMALL
GASTEIGER

@<TRIPOS>ATOM
      1 N          63.2057   86.0934   14.0265 N.pl3   1  UNL1       -0.2926
      2 C          63.3071   85.1136   15.1577 C.3     1  UNL1        0.0922
      3 C          63.5715   85.6016   16.5513 C.3     1  UNL1        0.0220
      4 C          63.7345   87.0695   16.8136 C.3     1  UNL1        0.0126
      5 C          63.6331   88.0493   15.6823 C.3     1  UNL1        0.0963
      6 C          63.3688   87.5613   14.2888 C.3     1  UNL1        0.1012
      7 C          61.8986   85.9698   10.2814 C.ar    1  UNL1        0.1362
      8 C          62.1630   86.4577   11.6749 C.ar    1  UNL1        0.0686
      9 C          62.9413   85.6054   12.6329 C.ar    1  UNL1        0.1361
     10 N          63.4552   84.2652   12.1974 N.ar    1  UNL1       -0.2083
     11 C          63.1908   83.7773   10.8039 C.ar    1  UNL1        0.2374
     12 N          62.4125   84.6296    9.8459 N.ar    1  UNL1       -0.2083
     13 C          58.7852   89.3788    6.4492 C.3     1  UNL1        0.0897
     14 N          59.5636   88.5266    7.4072 N.3     1  UNL1       -0.2686
     15 C          60.3251   89.1650    8.5308 C.3     1  UNL1        0.0939
     16 C          61.1034   88.3127    9.4888 C.3     1  UNL1        0.1095
     17 N          61.1202   86.8220    9.3233 N.pl3   1  UNL1       -0.2903
     18 C          60.3587   86.1836    8.1997 C.3     1  UNL1        0.1095
     19 C          59.5804   87.0359    7.2417 C.3     1  UNL1        0.0939
     20 C          63.7047   82.4370   10.3683 C.3     1  UNL1        0.4524
     21 F          64.2187   81.0968    9.9328 F       1  UNL1       -0.1632
     22 F          64.7210   83.1107    9.4947 F       1  UNL1       -0.1632
     23 F          62.6885   81.7634   11.2420 F       1  UNL1       -0.1632
     24 C          63.7962   89.5172   15.9446 C.2     1  UNL1        0.2237
     25 O          63.0444   90.1662   17.0687 O.2     1  UNL1       -0.2751
     26 N          64.7111   90.3360   15.0829 N.am    1  UNL1       -0.3040
     27 H          65.2045   89.9100   14.3451 H       1  UNL1        0.1494
     28 C          64.8741   91.8039   15.3452 C.3     1  UNL1        0.0941
     29 C          66.1671   92.4865   15.0105 C.3     1  UNL1        0.0492
     30 C          66.7141   92.4145   13.6157 C.ar    1  UNL1       -0.0013
     31 C          65.8828   92.8842   12.4589 C.ar    1  UNL1       -0.0004
     32 C          66.4298   92.8122   11.0640 C.ar    1  UNL1        0.0293
     33 C          67.8081   92.2706   10.8260 C.ar    1  UNL1        0.1491
     34 N          68.6395   91.8009   11.9828 N.ar    1  UNL1       -0.2339
     35 C          68.0925   91.8729   13.3776 C.ar    1  UNL1        0.0954
     36 C          68.3551   92.1986    9.4311 C.1     1  UNL1        0.1198
     37 N          68.9021   92.1267    8.0363 N.1     1  UNL1       -0.1893
@<TRIPOS>BOND
     1    13    14    1
     2    14    15    1
     3    15    16    1
     4    16    17    1
     5    17     7    1
     6     7     8   ar
     7     8     9   ar
     8     9     1    1
     9     1     2    1
    10     2     3    1
    11     3     4    1
    12     4     5    1
    13     5    24    1
    14    24    25    2
    15    24    26   am
    16    26    28    1
    17    28    29    1
    18    29    30    1
    19    30    31   ar
    20    31    32   ar
    21    32    33   ar
    22    33    36    1
    23    36    37    3
    24    33    34   ar
    25    34    35   ar
    26     5     6    1
    27     9    10   ar
    28    10    11   ar
    29    11    20    1
    30    20    21    1
    31    20    22    1
    32    20    23    1
    33    11    12   ar
    34    17    18    1
    35    18    19    1
    36    19    14    1
    37    12     7   ar
    38     6     1    1
    39    35    30   ar
    40    26    27    1
@<TRIPOS>MOLECULE
*****
 37 40 0 0 0
SMALL
GASTEIGER

@<TRIPOS>ATOM
      1 N          64.8541   90.7526   15.3833 N.pl3   1  UNL1       -0.2926
      2 C          63.7820   91.1694   16.3459 C.3     1  UNL1        0.0922
      3 C          62.7699   90.1692   16.8205 C.3     1  UNL1        0.0220
      4 C          62.8300   88.7521   16.3323 C.3     1  UNL1        0.0126
      5 C          63.9022   88.3353   15.3696 C.3     1  UNL1        0.0963
      6 C          64.9142   89.3356   14.8951 C.3     1  UNL1        0.1012
      7 C          66.7370   93.3772   13.0775 C.ar    1  UNL1        0.1362
      8 C          65.7249   92.3770   13.5521 C.ar    1  UNL1        0.0686
      9 C          65.8663   91.7529   14.9087 C.ar    1  UNL1        0.1361
     10 N          67.0197   92.1290   15.7908 N.ar    1  UNL1       -0.2083
     11 C          68.0317   93.1293   15.3163 C.ar    1  UNL1        0.2374
     12 N          67.8904   93.7534   13.9596 N.ar    1  UNL1       -0.2083
     13 C          66.1715   95.8736    7.6509 C.3     1  UNL1        0.0897
     14 N          66.3129   95.2495    9.0075 N.3     1  UNL1       -0.2686
     15 C          65.8387   95.9862   10.2251 C.3     1  UNL1        0.0939
     16 C          65.9800   95.3621   11.5817 C.3     1  UNL1        0.1095
     17 N          66.5956   94.0013   11.7208 N.pl3   1  UNL1       -0.2903
     18 C          67.0698   93.2647   10.5033 C.3     1  UNL1        0.1095
     19 C          66.9285   93.8888    9.1467 C.3     1  UNL1        0.0939
     20 C          69.1852   93.5054   16.1984 C.3     1  UNL1        0.4524
     21 F          70.3386   93.8816   17.0804 F       1  UNL1       -0.1632
     22 F          69.4903   92.0534   16.4185 F       1  UNL1       -0.1632
     23 F          68.8801   94.9575   15.9782 F       1  UNL1       -0.1632
     24 C          63.9622   86.9182   14.8814 C.2     1  UNL1        0.2237
     25 O          63.8988   86.6282   13.4111 O.2     1  UNL1       -0.2751
     26 N          64.0857   85.7912   15.8636 N.am    1  UNL1       -0.3040
     27 H          64.1273   85.9816   16.8286 H       1  UNL1        0.1494
     28 C          64.1458   84.3742   15.3754 C.3     1  UNL1        0.0941
     29 C          62.8841   83.6579   14.9947 C.3     1  UNL1        0.0492
     30 C          62.8819   82.7081   13.8338 C.ar    1  UNL1       -0.0013
     31 C          63.2573   83.1950   12.4656 C.ar    1  UNL1       -0.0004
     32 C          63.2552   82.2452   11.3047 C.ar    1  UNL1        0.0293
     33 C          62.8777   80.8083   11.5119 C.ar    1  UNL1        0.1491
     34 N          62.5024   80.3214   12.8801 N.ar    1  UNL1       -0.2339
     35 C          62.5045   81.2713   14.0410 C.ar    1  UNL1        0.0954
     36 C          62.8756   79.8585   10.3510 C.1     1  UNL1        0.1198
     37 N          62.8735   78.9086    9.1901 N.1     1  UNL1       -0.1893
@<TRIPOS>BOND
     1    13    14    1
     2    14    15    1
     3    15    16    1
     4    16    17    1
     5    17     7    1
     6     7     8   ar
     7     8     9   ar
     8     9     1    1
     9     1     2    1
    10     2     3    1
    11     3     4    1
    12     4     5    1
    13     5    24    1
    14    24    25    2
    15    24    26   am
    16    26    28    1
    17    28    29    1
    18    29    30    1
    19    30    31   ar
    20    31    32   ar
    21    32    33   ar
    22    33    36    1
    23    36    37    3
    24    33    34   ar
    25    34    35   ar
    26     5     6    1
    27     9    10   ar
    28    10    11   ar
    29    11    20    1
    30    20    21    1
    31    20    22    1
    32    20    23    1
    33    11    12   ar
    34    17    18    1
    35    18    19    1
    36    19    14    1
    37    12     7   ar
    38     6     1    1
    39    35    30   ar
    40    26    27    1
