@<TRIPOS>MOLECULE
*****
 34 37 0 0 0
SMALL
GASTEIGER

@<TRIPOS>ATOM
      1 N          64.9889   90.1667   14.4061 N.ar    1  UNL1       -0.2874
      2 C          66.0945   90.9610   15.0358 C.ar    1  UNL1        0.0858
      3 C          66.6820   92.1348   14.3099 C.ar    1  UNL1        0.0705
      4 C          66.1639   92.5142   12.9543 C.ar    1  UNL1        0.1996
      5 O          66.7514   93.6881   12.2284 O.2     1  UNL1       -0.2864
      6 C          65.0582   91.7199   12.3247 C.ar    1  UNL1        0.0583
      7 C          64.5401   92.0993   10.9691 C.ar    1  UNL1        0.0356
      8 C          63.4345   91.3050   10.3394 C.ar    1  UNL1        0.1543
      9 F          62.9163   91.6844    8.9839 F       1  UNL1       -0.2028
     10 C          62.8469   90.1311   11.0654 C.ar    1  UNL1        0.0878
     11 C          63.3650   89.7517   12.4209 C.ar    1  UNL1        0.0893
     12 CL         62.7775   88.5779   13.1469 Cl      1  UNL1       -0.0794
     13 C          64.4707   90.5461   13.0506 C.ar    1  UNL1        0.0803
     14 N          64.5320   85.0278   15.0254 N.pl3   1  UNL1       -0.3408
     15 C          64.1729   86.4233   15.4417 C.ar    1  UNL1        0.1548
     16 N          64.7605   87.5972   14.7158 N.ar    1  UNL1       -0.2091
     17 C          64.4013   88.9928   15.1321 C.ar    1  UNL1        0.1769
     18 C          63.4546   89.2146   16.2743 C.ar    1  UNL1        0.1767
     19 F          63.0955   90.6103   16.6905 F       1  UNL1       -0.2009
     20 C          62.8671   88.0408   17.0002 C.ar    1  UNL1        0.0652
     21 C          63.2262   86.6452   16.5839 C.ar    1  UNL1        0.1734
     22 F          62.6386   85.4714   17.3098 F       1  UNL1       -0.2012
     23 H          65.1534   84.8822   14.2758 H       1  UNL1        0.1438
     24 H          64.1464   84.2573   15.5019 H       1  UNL1        0.1438
     25 N          61.7413   89.3367   10.4357 N.pl3   1  UNL1       -0.3022
     26 C          61.6496   88.0072    9.7472 C.3     1  UNL1        0.1081
     27 C          60.1776   88.2133    9.5452 C.3     1  UNL1        0.0908
     28 N          59.0719   87.4189    8.9156 N.3     1  UNL1       -0.3195
     29 C          60.2693   89.5428   10.2338 C.3     1  UNL1        0.1081
     30 H          58.1956   87.9350    8.9934 H       1  UNL1        0.1189
     31 H          58.9822   86.5225    9.3939 H       1  UNL1        0.1189
     32 C          67.7877   92.9292   14.9395 C.2     1  UNL1        0.0774
     33 O          67.5011   93.8080   16.1209 O.co2   1  UNL1       -0.5444
     34 O          69.1800   92.8449   14.3878 O.co2   1  UNL1       -0.5444
@<TRIPOS>UNITY_ATOM_ATTR
33 1
charge -1
@<TRIPOS>BOND
     1    14    15    1
     2    15    16   ar
     3    16    17   ar
     4    17     1    1
     5     1     2   ar
     6     2     3   ar
     7     3    32    1
     8    32    33   ar
     9    32    34   ar
    10     3     4   ar
    11     4     5    2
    12     4     6   ar
    13     6     7   ar
    14     7     8   ar
    15     8     9    1
    16     8    10   ar
    17    10    25    1
    18    25    26    1
    19    26    27    1
    20    27    28    1
    21    27    29    1
    22    10    11   ar
    23    11    12    1
    24    11    13   ar
    25    17    18   ar
    26    18    19    1
    27    18    20   ar
    28    20    21   ar
    29    21    22    1
    30    21    15   ar
    31    13     1   ar
    32    13     6   ar
    33    29    25    1
    34    14    23    1
    35    14    24    1
    36    28    30    1
    37    28    31    1
@<TRIPOS>MOLECULE
*****
 34 37 0 0 0
SMALL
GASTEIGER

@<TRIPOS>ATOM
      1 N          62.6435   87.7183   11.5061 N.ar    1  UNL1       -0.2874
      2 C          62.9465   89.1849   11.5901 C.ar    1  UNL1        0.0858
      3 C          63.7211   89.7251   12.7555 C.ar    1  UNL1        0.0705
      4 C          64.1926   88.7986   13.8369 C.ar    1  UNL1        0.1996
      5 O          64.9672   89.3388   15.0023 O.2     1  UNL1       -0.2864
      6 C          63.8896   87.3320   13.7528 C.ar    1  UNL1        0.0583
      7 C          64.3611   86.4055   14.8341 C.ar    1  UNL1        0.0356
      8 C          64.0581   84.9389   14.7501 C.ar    1  UNL1        0.1543
      9 F          64.5297   84.0124   15.8314 F       1  UNL1       -0.2028
     10 C          63.2835   84.3986   13.5846 C.ar    1  UNL1        0.0878
     11 C          62.8120   85.3251   12.5033 C.ar    1  UNL1        0.0893
     12 CL         62.0374   84.7849   11.3379 Cl      1  UNL1       -0.0794
     13 C          63.1150   86.7918   12.5874 C.ar    1  UNL1        0.0803
     14 N          62.4819   84.9941    7.0842 N.pl3   1  UNL1       -0.3408
     15 C          61.7881   85.8159    8.1297 C.ar    1  UNL1        0.1548
     16 N          62.5627   86.3562    9.2951 N.ar    1  UNL1       -0.2091
     17 C          61.8689   87.1780   10.3406 C.ar    1  UNL1        0.1769
     18 C          60.4004   87.4597   10.2208 C.ar    1  UNL1        0.1767
     19 F          59.7066   88.2815   11.2663 F       1  UNL1       -0.2009
     20 C          59.6258   86.9195    9.0554 C.ar    1  UNL1        0.0652
     21 C          60.3196   86.0976    8.0098 C.ar    1  UNL1        0.1734
     22 F          59.5450   85.5574    6.8444 F       1  UNL1       -0.2012
     23 H          63.4457   84.8092    7.1628 H       1  UNL1        0.1438
     24 H          61.9735   84.6395    6.3193 H       1  UNL1        0.1438
     25 N          62.9805   82.9320   13.5006 N.pl3   1  UNL1       -0.3022
     26 C          63.5574   81.7713   12.7456 C.3     1  UNL1        0.1081
     27 C          62.5520   80.8578   13.3817 C.3     1  UNL1        0.0908
     28 N          62.2489   79.3911   13.2977 N.3     1  UNL1       -0.3195
     29 C          61.9751   82.0185   14.1367 C.3     1  UNL1        0.1081
     30 H          61.4629   79.1707   13.9093 H       1  UNL1        0.1189
     31 H          63.0674   78.8575   13.5903 H       1  UNL1        0.1189
     32 C          64.0241   91.1918   12.8396 C.2     1  UNL1        0.0774
     33 O          63.9664   91.8948   14.1634 O.co2   1  UNL1       -0.5444
     34 O          64.3849   91.9553   11.5999 O.co2   1  UNL1       -0.5444
@<TRIPOS>UNITY_ATOM_ATTR
33 1
charge -1
@<TRIPOS>BOND
     1    14    15    1
     2    15    16   ar
     3    16    17   ar
     4    17     1    1
     5     1     2   ar
     6     2     3   ar
     7     3    32    1
     8    32    33   ar
     9    32    34   ar
    10     3     4   ar
    11     4     5    2
    12     4     6   ar
    13     6     7   ar
    14     7     8   ar
    15     8     9    1
    16     8    10   ar
    17    10    25    1
    18    25    26    1
    19    26    27    1
    20    27    28    1
    21    27    29    1
    22    10    11   ar
    23    11    12    1
    24    11    13   ar
    25    17    18   ar
    26    18    19    1
    27    18    20   ar
    28    20    21   ar
    29    21    22    1
    30    21    15   ar
    31    13     1   ar
    32    13     6   ar
    33    29    25    1
    34    14    23    1
    35    14    24    1
    36    28    30    1
    37    28    31    1
@<TRIPOS>MOLECULE
*****
 34 37 0 0 0
SMALL
GASTEIGER

@<TRIPOS>ATOM
      1 N          62.0265   86.4163   11.1054 N.ar    1  UNL1       -0.2874
      2 C          61.1352   85.8464   10.0421 C.ar    1  UNL1        0.0858
      3 C          60.5334   86.7481    9.0053 C.ar    1  UNL1        0.0705
      4 C          60.8230   88.2196    9.0320 C.ar    1  UNL1        0.1996
      5 O          60.2211   89.1213    7.9952 O.2     1  UNL1       -0.2864
      6 C          61.7143   88.7895   10.0953 C.ar    1  UNL1        0.0583
      7 C          62.0038   90.2611   10.1219 C.ar    1  UNL1        0.0356
      8 C          62.8951   90.8309   11.1852 C.ar    1  UNL1        0.1543
      9 F          63.1847   92.3025   11.2119 F       1  UNL1       -0.2028
     10 C          63.4970   89.9293   12.2220 C.ar    1  UNL1        0.0878
     11 C          63.2074   88.4577   12.1954 C.ar    1  UNL1        0.0893
     12 CL         63.8092   87.5561   13.2321 Cl      1  UNL1       -0.0794
     13 C          62.3161   87.8878   11.1320 C.ar    1  UNL1        0.0803
     14 N          62.3601   84.8287   16.0418 N.pl3   1  UNL1       -0.3408
     15 C          62.7952   84.7208   14.6104 C.ar    1  UNL1        0.1548
     16 N          62.1933   85.6225   13.5736 N.ar    1  UNL1       -0.2091
     17 C          62.6284   85.5146   12.1422 C.ar    1  UNL1        0.1769
     18 C          63.6652   84.5051   11.7474 C.ar    1  UNL1        0.1767
     19 F          64.1003   84.3973   10.3159 F       1  UNL1       -0.2009
     20 C          64.2671   83.6035   12.7841 C.ar    1  UNL1        0.0652
     21 C          63.8320   83.7113   14.2157 C.ar    1  UNL1        0.1734
     22 F          64.4339   82.8097   15.2524 F       1  UNL1       -0.2012
     23 H          61.6796   85.4912   16.3009 H       1  UNL1        0.1438
     24 H          62.7551   84.2369   16.7223 H       1  UNL1        0.1438
     25 N          64.3883   90.4992   13.2854 N.pl3   1  UNL1       -0.3022
     26 C          64.4178   90.4482   14.7842 C.3     1  UNL1        0.1081
     27 C          65.6488   91.3051   14.7892 C.3     1  UNL1        0.0908
     28 N          66.5402   91.8751   15.8525 N.3     1  UNL1       -0.3195
     29 C          65.6194   91.3561   13.2903 C.3     1  UNL1        0.1081
     30 H          67.2870   92.4159   15.4163 H       1  UNL1        0.1189
     31 H          66.9455   91.1155   16.3996 H       1  UNL1        0.1189
     32 C          59.6420   86.1782    7.9419 C.2     1  UNL1        0.0774
     33 O          60.1790   85.1615    6.9787 O.co2   1  UNL1       -0.5444
     34 O          58.2137   86.6251    7.8418 O.co2   1  UNL1       -0.5444
@<TRIPOS>UNITY_ATOM_ATTR
33 1
charge -1
@<TRIPOS>BOND
     1    14    15    1
     2    15    16   ar
     3    16    17   ar
     4    17     1    1
     5     1     2   ar
     6     2     3   ar
     7     3    32    1
     8    32    33   ar
     9    32    34   ar
    10     3     4   ar
    11     4     5    2
    12     4     6   ar
    13     6     7   ar
    14     7     8   ar
    15     8     9    1
    16     8    10   ar
    17    10    25    1
    18    25    26    1
    19    26    27    1
    20    27    28    1
    21    27    29    1
    22    10    11   ar
    23    11    12    1
    24    11    13   ar
    25    17    18   ar
    26    18    19    1
    27    18    20   ar
    28    20    21   ar
    29    21    22    1
    30    21    15   ar
    31    13     1   ar
    32    13     6   ar
    33    29    25    1
    34    14    23    1
    35    14    24    1
    36    28    30    1
    37    28    31    1
@<TRIPOS>MOLECULE
*****
 34 37 0 0 0
SMALL
GASTEIGER

@<TRIPOS>ATOM
      1 N          64.3859   88.8251   14.1841 N.ar    1  UNL1       -0.2874
      2 C          65.2289   89.7202   15.0432 C.ar    1  UNL1        0.0858
      3 C          65.5088   91.1288   14.6103 C.ar    1  UNL1        0.0705
      4 C          64.9458   91.6423   13.3183 C.ar    1  UNL1        0.1996
      5 O          65.2258   93.0509   12.8853 O.2     1  UNL1       -0.2864
      6 C          64.1028   90.7471   12.4592 C.ar    1  UNL1        0.0583
      7 C          63.5398   91.2606   11.1671 C.ar    1  UNL1        0.0356
      8 C          62.6968   90.3655   10.3080 C.ar    1  UNL1        0.1543
      9 F          62.1338   90.8790    9.0160 F       1  UNL1       -0.2028
     10 C          62.4168   88.9568   10.7409 C.ar    1  UNL1        0.0878
     11 C          62.9798   88.4434   12.0330 C.ar    1  UNL1        0.0893
     12 CL         62.6999   87.0348   12.4659 Cl      1  UNL1       -0.0794
     13 C          63.8229   89.3386   12.8921 C.ar    1  UNL1        0.0803
     14 N          64.7695   83.7071   13.3717 N.pl3   1  UNL1       -0.3408
     15 C          64.2977   84.8575   14.2108 C.ar    1  UNL1        0.1548
     16 N          64.5777   86.2661   13.7779 N.ar    1  UNL1       -0.2091
     17 C          64.1059   87.4164   14.6170 C.ar    1  UNL1        0.1769
     18 C          63.3541   87.1582   15.8891 C.ar    1  UNL1        0.1767
     19 F          62.8823   88.3086   16.7282 F       1  UNL1       -0.2009
     20 C          63.0741   85.7496   16.3220 C.ar    1  UNL1        0.0652
     21 C          63.5459   84.5992   15.4829 C.ar    1  UNL1        0.1734
     22 F          63.2659   83.1906   15.9158 F       1  UNL1       -0.2012
     23 H          65.2630   83.8767   12.5369 H       1  UNL1        0.1438
     24 H          64.5858   82.7826   13.6559 H       1  UNL1        0.1438
     25 N          61.5738   88.0617    9.8818 N.pl3   1  UNL1       -0.3022
     26 C          61.8125   86.7936    9.1171 C.3     1  UNL1        0.1081
     27 C          60.3816   86.7958    8.6669 C.3     1  UNL1        0.0908
     28 N          59.5386   85.9007    7.8077 N.3     1  UNL1       -0.3195
     29 C          60.1430   88.0640    9.4316 C.3     1  UNL1        0.1081
     30 H          58.5907   86.2737    7.7556 H       1  UNL1        0.1189
     31 H          59.5139   84.9650    8.2131 H       1  UNL1        0.1189
     32 C          66.3519   92.0240   15.4694 C.2     1  UNL1        0.0774
     33 O          67.8059   92.2141   15.1540 O.co2   1  UNL1       -0.5444
     34 O          65.7408   92.7290   16.6439 O.co2   1  UNL1       -0.5444
@<TRIPOS>UNITY_ATOM_ATTR
33 1
charge -1
@<TRIPOS>BOND
     1    14    15    1
     2    15    16   ar
     3    16    17   ar
     4    17     1    1
     5     1     2   ar
     6     2     3   ar
     7     3    32    1
     8    32    33   ar
     9    32    34   ar
    10     3     4   ar
    11     4     5    2
    12     4     6   ar
    13     6     7   ar
    14     7     8   ar
    15     8     9    1
    16     8    10   ar
    17    10    25    1
    18    25    26    1
    19    26    27    1
    20    27    28    1
    21    27    29    1
    22    10    11   ar
    23    11    12    1
    24    11    13   ar
    25    17    18   ar
    26    18    19    1
    27    18    20   ar
    28    20    21   ar
    29    21    22    1
    30    21    15   ar
    31    13     1   ar
    32    13     6   ar
    33    29    25    1
    34    14    23    1
    35    14    24    1
    36    28    30    1
    37    28    31    1
@<TRIPOS>MOLECULE
*****
 34 37 0 0 0
SMALL
GASTEIGER

@<TRIPOS>ATOM
      1 N          66.6589   93.1081   12.5617 N.ar    1  UNL1       -0.2874
      2 C          67.6528   93.5398   13.5989 C.ar    1  UNL1        0.0858
      3 C          67.5066   93.0744   15.0173 C.ar    1  UNL1        0.0705
      4 C          66.3666   92.1772   15.3985 C.ar    1  UNL1        0.1996
      5 O          66.2205   91.7117   16.8171 O.2     1  UNL1       -0.2864
      6 C          65.3727   91.7454   14.3614 C.ar    1  UNL1        0.0583
      7 C          64.2327   90.8482   14.7427 C.ar    1  UNL1        0.0356
      8 C          63.2388   90.4165   13.7055 C.ar    1  UNL1        0.1543
      9 F          62.0988   89.5193   14.0868 F       1  UNL1       -0.2028
     10 C          63.3849   90.8819   12.2870 C.ar    1  UNL1        0.0878
     11 C          64.5249   91.7791   11.9058 C.ar    1  UNL1        0.0893
     12 CL         64.6710   92.2446   10.4873 Cl      1  UNL1       -0.0794
     13 C          65.5188   92.2109   12.9430 C.ar    1  UNL1        0.0803
     14 N          65.4740   96.4755    8.7859 N.pl3   1  UNL1       -0.3408
     15 C          66.2125   95.2573    9.2553 C.ar    1  UNL1        0.1548
     16 N          66.0664   94.7918   10.6738 N.ar    1  UNL1       -0.2091
     17 C          66.8050   93.5736   11.1432 C.ar    1  UNL1        0.1769
     18 C          67.6896   92.8207   10.1942 C.ar    1  UNL1        0.1767
     19 F          68.4281   91.6024   10.6637 F       1  UNL1       -0.2009
     20 C          67.8357   93.2861    8.7758 C.ar    1  UNL1        0.0652
     21 C          67.0972   94.5044    8.3063 C.ar    1  UNL1        0.1734
     22 F          67.2433   94.9698    6.8879 F       1  UNL1       -0.2012
     23 H          64.8934   96.9696    9.4088 H       1  UNL1        0.1438
     24 H          65.5699   96.7810    7.8549 H       1  UNL1        0.1438
     25 N          62.3910   90.4502   11.2499 N.pl3   1  UNL1       -0.3022
     26 C          60.9539   90.7683   10.9606 C.3     1  UNL1        0.1081
     27 C          60.9854   89.8396    9.7831 C.3     1  UNL1        0.0908
     28 N          59.9914   89.4078    8.7459 N.3     1  UNL1       -0.3195
     29 C          62.4224   89.5215   10.0724 C.3     1  UNL1        0.1081
     30 H          60.4319   88.7447    8.1082 H       1  UNL1        0.1189
     31 H          59.6714   90.2222    8.2218 H       1  UNL1        0.1189
     32 C          68.5006   93.5061   16.0545 C.2     1  UNL1        0.0774
     33 O          68.6502   94.9603   16.3905 O.co2   1  UNL1       -0.5444
     34 O          69.3448   92.4836   16.7558 O.co2   1  UNL1       -0.5444
@<TRIPOS>UNITY_ATOM_ATTR
33 1
charge -1
@<TRIPOS>BOND
     1    14    15    1
     2    15    16   ar
     3    16    17   ar
     4    17     1    1
     5     1     2   ar
     6     2     3   ar
     7     3    32    1
     8    32    33   ar
     9    32    34   ar
    10     3     4   ar
    11     4     5    2
    12     4     6   ar
    13     6     7   ar
    14     7     8   ar
    15     8     9    1
    16     8    10   ar
    17    10    25    1
    18    25    26    1
    19    26    27    1
    20    27    28    1
    21    27    29    1
    22    10    11   ar
    23    11    12    1
    24    11    13   ar
    25    17    18   ar
    26    18    19    1
    27    18    20   ar
    28    20    21   ar
    29    21    22    1
    30    21    15   ar
    31    13     1   ar
    32    13     6   ar
    33    29    25    1
    34    14    23    1
    35    14    24    1
    36    28    30    1
    37    28    31    1
@<TRIPOS>MOLECULE
*****
 34 37 0 0 0
SMALL
GASTEIGER

@<TRIPOS>ATOM
      1 N          62.5259   84.5661   11.9102 N.ar    1  UNL1       -0.2874
      2 C          62.3481   83.1311   12.3091 C.ar    1  UNL1        0.0858
      3 C          62.7241   82.6847   13.6909 C.ar    1  UNL1        0.0705
      4 C          63.2779   83.6733   14.6737 C.ar    1  UNL1        0.1996
      5 O          63.6539   83.2268   16.0555 O.2     1  UNL1       -0.2864
      6 C          63.4557   85.1083   14.2748 C.ar    1  UNL1        0.0583
      7 C          64.0095   86.0968   15.2577 C.ar    1  UNL1        0.0356
      8 C          64.1874   87.5318   14.8588 C.ar    1  UNL1        0.1543
      9 F          64.7412   88.5204   15.8416 F       1  UNL1       -0.2028
     10 C          63.8114   87.9783   13.4769 C.ar    1  UNL1        0.0878
     11 C          63.2575   86.9897   12.4941 C.ar    1  UNL1        0.0893
     12 CL         62.8816   87.4361   11.1123 Cl      1  UNL1       -0.0794
     13 C          63.0797   85.5547   12.8931 C.ar    1  UNL1        0.0803
     14 N          59.2730   87.0588    8.7156 N.pl3   1  UNL1       -0.3408
     15 C          60.5234   86.2589    8.9311 C.ar    1  UNL1        0.1548
     16 N          60.8994   85.8124   10.3129 N.ar    1  UNL1       -0.2091
     17 C          62.1499   85.0125   10.5284 C.ar    1  UNL1        0.1769
     18 C          63.0244   84.6591    9.3621 C.ar    1  UNL1        0.1767
     19 F          64.2750   83.8592    9.5776 F       1  UNL1       -0.2009
     20 C          62.6485   85.1055    7.9803 C.ar    1  UNL1        0.0652
     21 C          61.3980   85.9054    7.7648 C.ar    1  UNL1        0.1734
     22 F          61.0220   86.3519    6.3830 F       1  UNL1       -0.2012
     23 H          58.6990   87.2908    9.4811 H       1  UNL1        0.1438
     24 H          59.0262   87.3518    7.8087 H       1  UNL1        0.1438
     25 N          63.9892   89.4132   13.0780 N.pl3   1  UNL1       -0.3022
     26 C          64.8474   90.5478   13.5536 C.3     1  UNL1        0.1081
     27 C          64.2407   91.4427   12.5139 C.3     1  UNL1        0.0908
     28 N          64.4185   92.8777   12.1149 N.3     1  UNL1       -0.3195
     29 C          63.3824   90.3081   12.0383 C.3     1  UNL1        0.1081
     30 H          63.7946   93.0943   11.3375 H       1  UNL1        0.1189
     31 H          65.3850   93.0338   11.8289 H       1  UNL1        0.1189
     32 C          62.5463   81.2497   14.0898 C.2     1  UNL1        0.0774
     33 O          61.1683   80.6684   14.2049 O.co2   1  UNL1       -0.5444
     34 O          63.7465   80.3959   14.3737 O.co2   1  UNL1       -0.5444
@<TRIPOS>UNITY_ATOM_ATTR
33 1
charge -1
@<TRIPOS>BOND
     1    14    15    1
     2    15    16   ar
     3    16    17   ar
     4    17     1    1
     5     1     2   ar
     6     2     3   ar
     7     3    32    1
     8    32    33   ar
     9    32    34   ar
    10     3     4   ar
    11     4     5    2
    12     4     6   ar
    13     6     7   ar
    14     7     8   ar
    15     8     9    1
    16     8    10   ar
    17    10    25    1
    18    25    26    1
    19    26    27    1
    20    27    28    1
    21    27    29    1
    22    10    11   ar
    23    11    12    1
    24    11    13   ar
    25    17    18   ar
    26    18    19    1
    27    18    20   ar
    28    20    21   ar
    29    21    22    1
    30    21    15   ar
    31    13     1   ar
    32    13     6   ar
    33    29    25    1
    34    14    23    1
    35    14    24    1
    36    28    30    1
    37    28    31    1
