@<TRIPOS>MOLECULE
*****
 33 38 0 0 0
SMALL
GASTEIGER

@<TRIPOS>ATOM
      1 C          64.2571   81.8168   13.1137 C.ar    1  UNL1        0.1223
      2 C          64.4143   83.1453   13.7921 C.ar    1  UNL1        0.0257
      3 C          63.8522   84.3827   13.1575 C.ar    1  UNL1        0.0419
      4 C          63.8522   85.8199   13.5874 C.ar    1  UNL1        0.0565
      5 C          64.4142   86.5056   14.7972 C.ar    1  UNL1        0.1049
      6 N          64.2569   87.9884   14.9597 N.ar    1  UNL1       -0.2119
      7 C          63.5376   88.7855   13.9122 C.ar    1  UNL1        0.2231
      8 N          62.9755   88.0997   12.7023 N.ar    1  UNL1       -0.1961
      9 C          63.1328   86.6169   12.5399 C.ar    1  UNL1        0.1493
     10 N          62.6883   85.6725   11.4627 N.ar    1  UNL1       -0.2985
     11 C          63.1329   84.2917   11.8444 C.ar    1  UNL1        0.1664
     12 N          62.9757   82.9632   11.1659 N.ar    1  UNL1       -0.1301
     13 N          63.5378   81.7257   11.8006 N.ar    1  UNL1       -0.1450
     14 C          61.9320   86.0436   10.2217 C.3     1  UNL1        0.0883
     15 C          62.2829   85.6380    8.8208 C.3     1  UNL1        0.0227
     16 C          61.2597   86.2293    7.8969 C.3     1  UNL1        0.0020
     17 C          60.2765   87.0003    8.7267 C.3     1  UNL1        0.0020
     18 C          60.6919   86.8856   10.1636 C.3     1  UNL1        0.0227
     19 N          63.3803   90.2684   14.0746 N.pl3   1  UNL1       -0.2679
     20 H          62.7801   90.6268   14.7679 H       1  UNL1        0.1565
     21 C          64.1373   91.2053   13.1807 C.ar    1  UNL1        0.1344
     22 C          63.8518   91.2320   11.7084 C.ar    1  UNL1        0.0358
     23 C          64.6089   92.1689   10.8145 C.ar    1  UNL1        0.0190
     24 C          65.6515   93.0791   11.3929 C.ar    1  UNL1        0.0675
     25 C          65.9370   93.0524   12.8653 C.ar    1  UNL1        0.1147
     26 N          65.1799   92.1155   13.7592 N.ar    1  UNL1       -0.2277
     27 N          66.4085   94.0160   10.4990 N.pl3   1  UNL1       -0.3035
     28 C          67.2515   93.4717    9.3840 C.3     1  UNL1        0.1079
     29 C          68.0086   94.4087    8.4901 C.3     1  UNL1        0.0903
     30 N          67.9227   95.8898    8.7112 N.3     1  UNL1       -0.2946
     31 C          67.0797   96.4340    9.8262 C.3     1  UNL1        0.0903
     32 C          66.3227   95.4971   10.7201 C.3     1  UNL1        0.1079
     33 H          67.5655   96.2964    7.8466 H       1  UNL1        0.1233
@<TRIPOS>BOND
     1     1     2   ar
     2     2     3   ar
     3     3     4   ar
     4     4     5   ar
     5     5     6   ar
     6     6     7   ar
     7     7    19    1
     8    19    21    1
     9    21    22   ar
    10    22    23   ar
    11    23    24   ar
    12    24    27    1
    13    27    28    1
    14    28    29    1
    15    29    30    1
    16    30    31    1
    17    31    32    1
    18    24    25   ar
    19    25    26   ar
    20     7     8   ar
    21     8     9   ar
    22     9    10   ar
    23    10    14    1
    24    14    15    1
    25    15    16    1
    26    16    17    1
    27    17    18    1
    28    10    11   ar
    29    11    12   ar
    30    12    13   ar
    31    13     1   ar
    32    11     3   ar
    33     9     4   ar
    34    18    14    1
    35    26    21   ar
    36    32    27    1
    37    19    20    1
    38    30    33    1
@<TRIPOS>MOLECULE
*****
 33 38 0 0 0
SMALL
GASTEIGER

@<TRIPOS>ATOM
      1 C          63.1348   80.1934   12.6128 C.ar    1  UNL1        0.1223
      2 C          62.8344   81.3074   11.6543 C.ar    1  UNL1        0.0257
      3 C          62.7427   82.7198   12.1510 C.ar    1  UNL1        0.0419
      4 C          62.4629   84.0149   11.4476 C.ar    1  UNL1        0.0565
      5 C          62.1802   84.3355   10.0099 C.ar    1  UNL1        0.1049
      6 N          61.9333   85.7550    9.5926 N.ar    1  UNL1       -0.2119
      7 C          61.9690   86.8537   10.6131 C.ar    1  UNL1        0.2231
      8 N          62.2516   86.5331   12.0509 N.ar    1  UNL1       -0.1961
      9 C          62.4986   85.1136   12.4681 C.ar    1  UNL1        0.1493
     10 N          62.8004   84.4977   13.8021 N.ar    1  UNL1       -0.2985
     11 C          62.9513   83.0182   13.6061 C.ar    1  UNL1        0.1664
     12 N          63.2516   81.9042   14.5645 N.ar    1  UNL1       -0.1301
     13 N          63.3434   80.4918   14.0679 N.ar    1  UNL1       -0.1450
     14 C          62.9288   85.2322   15.1036 C.3     1  UNL1        0.0883
     15 C          63.9284   86.3064   15.4150 C.3     1  UNL1        0.0227
     16 C          63.6976   86.7596   16.8261 C.3     1  UNL1        0.0020
     17 C          62.5554   85.9654   17.3870 C.3     1  UNL1        0.0020
     18 C          62.0803   85.0214   16.3225 C.3     1  UNL1        0.0227
     19 N          61.7220   88.2733   10.1958 N.pl3   1  UNL1       -0.2679
     20 H          60.9928   88.4821    9.5682 H       1  UNL1        0.1565
     21 C          62.5861   89.3746   10.7347 C.ar    1  UNL1        0.1344
     22 C          62.9621   90.5310    9.8564 C.ar    1  UNL1        0.0358
     23 C          63.8261   91.6323   10.3953 C.ar    1  UNL1        0.0190
     24 C          64.3142   91.5772   11.8126 C.ar    1  UNL1        0.0675
     25 C          63.9382   90.4209   12.6909 C.ar    1  UNL1        0.1147
     26 N          63.0742   89.3196   12.1520 N.ar    1  UNL1       -0.2277
     27 N          65.1783   92.6785   12.3515 N.pl3   1  UNL1       -0.3035
     28 C          65.7102   92.5976   13.7517 C.3     1  UNL1        0.1079
     29 C          66.5743   93.6990   14.2906 C.3     1  UNL1        0.0903
     30 N          66.9065   94.8812   13.4293 N.3     1  UNL1       -0.2946
     31 C          66.3747   94.9622   12.0292 C.3     1  UNL1        0.0903
     32 C          65.5106   93.8609   11.4903 C.3     1  UNL1        0.1079
     33 H          67.9235   94.9190   13.3607 H       1  UNL1        0.1233
@<TRIPOS>BOND
     1     1     2   ar
     2     2     3   ar
     3     3     4   ar
     4     4     5   ar
     5     5     6   ar
     6     6     7   ar
     7     7    19    1
     8    19    21    1
     9    21    22   ar
    10    22    23   ar
    11    23    24   ar
    12    24    27    1
    13    27    28    1
    14    28    29    1
    15    29    30    1
    16    30    31    1
    17    31    32    1
    18    24    25   ar
    19    25    26   ar
    20     7     8   ar
    21     8     9   ar
    22     9    10   ar
    23    10    14    1
    24    14    15    1
    25    15    16    1
    26    16    17    1
    27    17    18    1
    28    10    11   ar
    29    11    12   ar
    30    12    13   ar
    31    13     1   ar
    32    11     3   ar
    33     9     4   ar
    34    18    14    1
    35    26    21   ar
    36    32    27    1
    37    19    20    1
    38    30    33    1
@<TRIPOS>MOLECULE
*****
 33 38 0 0 0
SMALL
GASTEIGER

@<TRIPOS>ATOM
      1 C          65.3165   94.4523    9.8187 C.ar    1  UNL1        0.1223
      2 C          64.6365   93.2266   10.3528 C.ar    1  UNL1        0.0257
      3 C          65.0858   92.6255   11.6516 C.ar    1  UNL1        0.0419
      4 C          64.6102   91.4293   12.4217 C.ar    1  UNL1        0.0565
      5 C          63.5244   90.4298   12.1536 C.ar    1  UNL1        0.1049
      6 N          63.2739   89.3155   13.1261 N.ar    1  UNL1       -0.2119
      7 C          64.1092   89.2009   14.3666 C.ar    1  UNL1        0.2231
      8 N          65.1950   90.2005   14.6348 N.ar    1  UNL1       -0.1961
      9 C          65.4455   91.3146   13.6623 C.ar    1  UNL1        0.1493
     10 N          66.4374   92.4399   13.6589 N.ar    1  UNL1       -0.2985
     11 C          66.2151   93.2500   12.4162 C.ar    1  UNL1        0.1664
     12 N          66.8950   94.4757   11.8820 N.ar    1  UNL1       -0.1301
     13 N          66.4457   95.0768   10.5833 N.ar    1  UNL1       -0.1450
     14 C          67.4702   92.7080   14.7131 C.3     1  UNL1        0.0883
     15 C          67.8856   94.0583   15.2173 C.3     1  UNL1        0.0227
     16 C          68.9411   93.8577   16.2640 C.3     1  UNL1        0.0020
     17 C          69.1781   92.3835   16.4067 C.3     1  UNL1        0.0020
     18 C          68.2690   91.6728   15.4482 C.3     1  UNL1        0.0227
     19 N          63.8587   88.0866   15.3392 N.pl3   1  UNL1       -0.2679
     20 H          63.8434   88.2713   16.3061 H       1  UNL1        0.1565
     21 C          63.6316   86.6910   14.8385 C.ar    1  UNL1        0.1344
     22 C          63.5550   85.5494   15.8085 C.ar    1  UNL1        0.0358
     23 C          63.3278   84.1538   15.3079 C.ar    1  UNL1        0.0190
     24 C          63.1772   83.8998   13.8372 C.ar    1  UNL1        0.0675
     25 C          63.2538   85.0414   12.8673 C.ar    1  UNL1        0.1147
     26 N          63.4810   86.4370   13.3679 N.ar    1  UNL1       -0.2277
     27 N          62.9501   82.5042   13.3366 N.pl3   1  UNL1       -0.3035
     28 C          62.3094   81.4824   14.2285 C.3     1  UNL1        0.1079
     29 C          62.0823   80.0868   13.7278 C.3     1  UNL1        0.0903
     30 N          62.4958   79.7130   12.3352 N.3     1  UNL1       -0.2946
     31 C          63.1364   80.7347   11.4434 C.3     1  UNL1        0.0903
     32 C          63.3635   82.1303   11.9440 C.3     1  UNL1        0.1079
     33 H          61.6559   79.3887   11.8557 H       1  UNL1        0.1233
@<TRIPOS>BOND
     1     1     2   ar
     2     2     3   ar
     3     3     4   ar
     4     4     5   ar
     5     5     6   ar
     6     6     7   ar
     7     7    19    1
     8    19    21    1
     9    21    22   ar
    10    22    23   ar
    11    23    24   ar
    12    24    27    1
    13    27    28    1
    14    28    29    1
    15    29    30    1
    16    30    31    1
    17    31    32    1
    18    24    25   ar
    19    25    26   ar
    20     7     8   ar
    21     8     9   ar
    22     9    10   ar
    23    10    14    1
    24    14    15    1
    25    15    16    1
    26    16    17    1
    27    17    18    1
    28    10    11   ar
    29    11    12   ar
    30    12    13   ar
    31    13     1   ar
    32    11     3   ar
    33     9     4   ar
    34    18    14    1
    35    26    21   ar
    36    32    27    1
    37    19    20    1
    38    30    33    1
@<TRIPOS>MOLECULE
*****
 33 38 0 0 0
SMALL
GASTEIGER

@<TRIPOS>ATOM
      1 C          63.1908   80.1728   12.9154 C.ar    1  UNL1        0.1223
      2 C          63.3856   81.2632   13.9268 C.ar    1  UNL1        0.0257
      3 C          63.2406   82.6994   13.5187 C.ar    1  UNL1        0.0419
      4 C          63.3730   83.9799   14.2887 C.ar    1  UNL1        0.0565
      5 C          63.6950   84.2574   15.7271 C.ar    1  UNL1        0.1049
      6 N          63.7592   85.6720   16.2219 N.ar    1  UNL1       -0.2119
      7 C          63.5012   86.8090   15.2782 C.ar    1  UNL1        0.2231
      8 N          63.1791   86.5315   13.8397 N.ar    1  UNL1       -0.1961
      9 C          63.1150   85.1169   13.3450 C.ar    1  UNL1        0.1493
     10 N          62.8232   84.5392   11.9918 N.ar    1  UNL1       -0.2985
     11 C          62.9008   83.0450   12.0992 C.ar    1  UNL1        0.1664
     12 N          62.7060   81.9546   11.0878 N.ar    1  UNL1       -0.1301
     13 N          62.8510   80.5185   11.4959 N.ar    1  UNL1       -0.1450
     14 C          62.5090   85.3186   10.7494 C.3     1  UNL1        0.0883
     15 C          63.0065   85.0135    9.3675 C.3     1  UNL1        0.0227
     16 C          62.4470   86.0464    8.4348 C.3     1  UNL1        0.0020
     17 C          61.6037   86.9900    9.2401 C.3     1  UNL1        0.0020
     18 C          61.6420   86.5402   10.6706 C.3     1  UNL1        0.0227
     19 N          63.5653   88.2237   15.7730 N.pl3   1  UNL1       -0.2679
     20 H          63.2908   88.4358   16.6944 H       1  UNL1        0.1565
     21 C          64.0477   89.3150   14.8641 C.ar    1  UNL1        0.1344
     22 C          65.3095   90.0584   15.1886 C.ar    1  UNL1        0.0358
     23 C          65.7919   91.1498   14.2796 C.ar    1  UNL1        0.0190
     24 C          65.0125   91.4977   13.0461 C.ar    1  UNL1        0.0675
     25 C          63.7507   90.7543   12.7216 C.ar    1  UNL1        0.1147
     26 N          63.2683   89.6629   13.6306 N.ar    1  UNL1       -0.2277
     27 N          65.4949   92.5890   12.1372 N.pl3   1  UNL1       -0.3035
     28 C          65.4065   92.4198   10.6494 C.3     1  UNL1        0.1079
     29 C          65.8890   93.5112    9.7404 C.3     1  UNL1        0.0903
     30 N          66.4597   94.7718   10.3192 N.3     1  UNL1       -0.2946
     31 C          66.5481   94.9410   11.8069 C.3     1  UNL1        0.0903
     32 C          66.0657   93.8497   12.7159 C.3     1  UNL1        0.1079
     33 H          65.8894   95.5414    9.9687 H       1  UNL1        0.1233
@<TRIPOS>BOND
     1     1     2   ar
     2     2     3   ar
     3     3     4   ar
     4     4     5   ar
     5     5     6   ar
     6     6     7   ar
     7     7    19    1
     8    19    21    1
     9    21    22   ar
    10    22    23   ar
    11    23    24   ar
    12    24    27    1
    13    27    28    1
    14    28    29    1
    15    29    30    1
    16    30    31    1
    17    31    32    1
    18    24    25   ar
    19    25    26   ar
    20     7     8   ar
    21     8     9   ar
    22     9    10   ar
    23    10    14    1
    24    14    15    1
    25    15    16    1
    26    16    17    1
    27    17    18    1
    28    10    11   ar
    29    11    12   ar
    30    12    13   ar
    31    13     1   ar
    32    11     3   ar
    33     9     4   ar
    34    18    14    1
    35    26    21   ar
    36    32    27    1
    37    19    20    1
    38    30    33    1
@<TRIPOS>MOLECULE
*****
 33 38 0 0 0
SMALL
GASTEIGER

@<TRIPOS>ATOM
      1 C          62.8151   79.3675   11.9406 C.ar    1  UNL1        0.1223
      2 C          62.8242   80.2120   13.1802 C.ar    1  UNL1        0.0257
      3 C          62.7785   81.7072   13.0694 C.ar    1  UNL1        0.0419
      4 C          62.7753   82.7909   14.1066 C.ar    1  UNL1        0.0565
      5 C          62.8168   82.7459   15.6052 C.ar    1  UNL1        0.1049
      6 N          62.8015   84.0213   16.3946 N.ar    1  UNL1       -0.2119
      7 C          62.7448   85.3417   15.6851 C.ar    1  UNL1        0.2231
      8 N          62.7034   85.3867   14.1864 N.ar    1  UNL1       -0.1961
      9 C          62.7186   84.1113   13.3971 C.ar    1  UNL1        0.1493
     10 N          62.6867   83.8437   11.9215 N.ar    1  UNL1       -0.2985
     11 C          62.7237   82.3579   11.7190 C.ar    1  UNL1        0.1664
     12 N          62.7146   81.5133   10.4794 N.ar    1  UNL1       -0.1301
     13 N          62.7603   80.0181   10.5902 N.ar    1  UNL1       -0.1450
     14 C          62.6281   84.8799   10.8386 C.3     1  UNL1        0.0883
     15 C          61.9720   86.2250   10.9399 C.3     1  UNL1        0.0227
     16 C          62.1537   86.9294    9.6281 C.3     1  UNL1        0.0020
     17 C          62.9221   86.0197    8.7160 C.3     1  UNL1        0.0020
     18 C          63.2153   84.7530    9.4641 C.3     1  UNL1        0.0227
     19 N          62.7295   86.6173   16.4745 N.pl3   1  UNL1       -0.2679
     20 H          62.3057   86.6414   17.3627 H       1  UNL1        0.1565
     21 C          63.3600   87.8559   15.9104 C.ar    1  UNL1        0.1344
     22 C          63.1124   89.1856   16.5590 C.ar    1  UNL1        0.0358
     23 C          63.7428   90.4242   15.9950 C.ar    1  UNL1        0.0190
     24 C          64.6209   90.3332   14.7822 C.ar    1  UNL1        0.0675
     25 C          64.8685   89.0036   14.1336 C.ar    1  UNL1        0.1147
     26 N          64.2380   87.7649   14.6976 N.ar    1  UNL1       -0.2277
     27 N          65.2513   91.5719   14.2181 N.pl3   1  UNL1       -0.3035
     28 C          66.1102   92.4398   15.0894 C.3     1  UNL1        0.1079
     29 C          66.7407   93.6785   14.5253 C.3     1  UNL1        0.0903
     30 N          66.5123   94.0493   13.0899 N.3     1  UNL1       -0.2946
     31 C          65.6535   93.1815   12.2187 C.3     1  UNL1        0.0903
     32 C          65.0230   91.9428   12.7827 C.3     1  UNL1        0.1079
     33 H          67.4303   94.0937   12.6476 H       1  UNL1        0.1233
@<TRIPOS>BOND
     1     1     2   ar
     2     2     3   ar
     3     3     4   ar
     4     4     5   ar
     5     5     6   ar
     6     6     7   ar
     7     7    19    1
     8    19    21    1
     9    21    22   ar
    10    22    23   ar
    11    23    24   ar
    12    24    27    1
    13    27    28    1
    14    28    29    1
    15    29    30    1
    16    30    31    1
    17    31    32    1
    18    24    25   ar
    19    25    26   ar
    20     7     8   ar
    21     8     9   ar
    22     9    10   ar
    23    10    14    1
    24    14    15    1
    25    15    16    1
    26    16    17    1
    27    17    18    1
    28    10    11   ar
    29    11    12   ar
    30    12    13   ar
    31    13     1   ar
    32    11     3   ar
    33     9     4   ar
    34    18    14    1
    35    26    21   ar
    36    32    27    1
    37    19    20    1
    38    30    33    1
