@<TRIPOS>MOLECULE
*****
 29 32 0 0 0
SMALL
GASTEIGER

@<TRIPOS>ATOM
      1 S          62.1134   89.0628   10.3120 S.O2    1  UNL1        0.0277
      2 O          62.3919   87.7083   10.8933 O.2     1  UNL1       -0.1642
      3 O          61.8348   90.4172    9.7307 O.2     1  UNL1       -0.1642
      4 C          62.9864   89.6910   11.3575 C.ar    1  UNL1        0.1133
      5 C          63.2267   88.9835   12.6581 C.ar    1  UNL1        0.0186
      6 C          64.0998   89.6118   13.7036 C.ar    1  UNL1        0.0002
      7 C          64.7326   90.9476   13.4485 C.ar    1  UNL1        0.0151
      8 C          64.4924   91.6551   12.1479 C.ar    1  UNL1        0.1358
      9 C          63.6193   91.0268   11.1024 C.ar    1  UNL1        0.0553
     10 O          65.2451   92.9522   12.1799 O.3     1  UNL1       -0.4777
     11 C          65.9505   93.0463   13.5004 C.3     1  UNL1        0.1855
     12 C          66.8403   94.1000   14.0901 C.3     1  UNL1        0.1130
     13 N          67.4133   93.9149   15.4639 N.3     1  UNL1       -0.2944
     14 C          67.0966   92.6759   16.2479 C.3     1  UNL1        0.0691
     15 C          66.2068   91.6222   15.6582 C.3     1  UNL1        0.0252
     16 C          65.6337   91.8073   14.2844 C.3     1  UNL1        0.0681
     17 H          67.0972   94.7066   16.0239 H       1  UNL1        0.1234
     18 C          60.5411   86.3584    7.8699 C.ar    1  UNL1        0.1431
     19 C          59.4941   87.1781    7.1756 C.ar    1  UNL1        0.0738
     20 C          59.3203   88.6260    7.5268 C.ar    1  UNL1        0.1427
     21 C          60.1933   89.2542    8.5722 C.ar    1  UNL1        0.0558
     22 C          61.2403   88.4345    9.2665 C.ar    1  UNL1        0.1163
     23 C          61.4142   86.9867    8.9154 C.ar    1  UNL1        0.0558
     24 C          61.5486   84.5209    6.3341 C.3     1  UNL1        0.2525
     25 O          60.7150   84.9104    7.5187 O.3     1  UNL1       -0.4713
     26 O          58.2734   89.4456    6.8325 O.3     1  UNL1       -0.4790
     27 C          58.6730   90.4387    5.7817 C.3     1  UNL1        0.1661
     28 C          60.1117   90.5634    5.3759 C.3     1  UNL1        0.0472
     29 C          57.6339   91.3071    5.1367 C.3     1  UNL1        0.0472
@<TRIPOS>BOND
     1    24    25    1
     2    25    18    1
     3    18    19   ar
     4    19    20   ar
     5    20    26    1
     6    26    27    1
     7    27    28    1
     8    27    29    1
     9    20    21   ar
    10    21    22   ar
    11    22     1    1
    12     1     2    2
    13     1     3    2
    14     1     4    1
    15     4     5   ar
    16     5     6   ar
    17     6     7   ar
    18     7     8   ar
    19     8     9   ar
    20     8    10    1
    21    10    11    1
    22    11    12    1
    23    12    13    1
    24    13    14    1
    25    14    15    1
    26    16    15    1
    27    22    23   ar
    28    23    18   ar
    29     9     4   ar
    30    16    11    1
    31    16     7    1
    32    13    17    1
@<TRIPOS>MOLECULE
*****
 29 32 0 0 0
SMALL
GASTEIGER

@<TRIPOS>ATOM
      1 S          62.1248   89.3244   10.3586 S.O2    1  UNL1        0.0277
      2 O          62.2438   87.9759   11.0047 O.2     1  UNL1       -0.1642
      3 O          62.0057   90.6729    9.7125 O.2     1  UNL1       -0.1642
      4 C          63.0220   89.9073   11.4099 C.ar    1  UNL1        0.1133
      5 C          63.2484   89.1694   12.6960 C.ar    1  UNL1        0.0186
      6 C          64.1457   89.7523   13.7473 C.ar    1  UNL1        0.0002
      7 C          64.8165   91.0732   13.5125 C.ar    1  UNL1        0.0151
      8 C          64.5901   91.8111   12.2263 C.ar    1  UNL1        0.1358
      9 C          63.6929   91.2282   11.1750 C.ar    1  UNL1        0.0553
     10 O          65.3812   93.0845   12.2772 O.3     1  UNL1       -0.4777
     11 C          66.0965   93.1336   13.5948 C.3     1  UNL1        0.1855
     12 C          67.0206   94.1496   14.1979 C.3     1  UNL1        0.1130
     13 N          67.5956   93.9225   15.5646 N.3     1  UNL1       -0.2944
     14 C          67.2466   92.6793   16.3280 C.3     1  UNL1        0.0691
     15 C          66.3225   91.6633   15.7248 C.3     1  UNL1        0.0252
     16 C          65.7475   91.8905   14.3582 C.3     1  UNL1        0.0681
     17 H          67.3063   94.7128   16.1408 H       1  UNL1        0.1234
     18 C          59.3472   89.0355    7.5388 C.ar    1  UNL1        0.1431
     19 C          59.4331   87.5757    7.2048 C.ar    1  UNL1        0.0738
     20 C          60.4161   86.6988    7.9222 C.ar    1  UNL1        0.1427
     21 C          61.3133   87.2817    8.9734 C.ar    1  UNL1        0.0558
     22 C          61.2275   88.7415    9.3073 C.ar    1  UNL1        0.1163
     23 C          60.2445   89.6184    8.5901 C.ar    1  UNL1        0.0558
     24 C          58.7823   90.6538    5.5863 C.3     1  UNL1        0.2525
     25 O          58.3641   89.9124    6.8215 O.3     1  UNL1       -0.4713
     26 O          60.5020   85.2389    7.5882 O.3     1  UNL1       -0.4790
     27 C          61.7450   84.6858    6.9567 C.3     1  UNL1        0.1661
     28 C          63.0430   84.7104    7.7081 C.3     1  UNL1        0.0472
     29 C          61.6901   84.1080    5.5735 C.3     1  UNL1        0.0472
@<TRIPOS>BOND
     1    24    25    1
     2    25    18    1
     3    18    19   ar
     4    19    20   ar
     5    20    26    1
     6    26    27    1
     7    27    28    1
     8    27    29    1
     9    20    21   ar
    10    21    22   ar
    11    22     1    1
    12     1     2    2
    13     1     3    2
    14     1     4    1
    15     4     5   ar
    16     5     6   ar
    17     6     7   ar
    18     7     8   ar
    19     8     9   ar
    20     8    10    1
    21    10    11    1
    22    11    12    1
    23    12    13    1
    24    13    14    1
    25    14    15    1
    26    16    15    1
    27    22    23   ar
    28    23    18   ar
    29     9     4   ar
    30    16    11    1
    31    16     7    1
    32    13    17    1
@<TRIPOS>MOLECULE
*****
 29 32 0 0 0
SMALL
GASTEIGER

@<TRIPOS>ATOM
      1 S          64.0381   88.5462   13.9465 S.O2    1  UNL1        0.0277
      2 O          63.4619   87.9700   12.6871 O.2     1  UNL1       -0.1642
      3 O          64.6144   89.1224   15.2058 O.2     1  UNL1       -0.1642
      4 C          64.3236   89.8315   13.2278 C.ar    1  UNL1        0.1133
      5 C          63.8035   90.0447   11.8371 C.ar    1  UNL1        0.0186
      6 C          64.0889   91.3300   11.1184 C.ar    1  UNL1        0.0002
      7 C          64.8945   92.4021   11.7904 C.ar    1  UNL1        0.0151
      8 C          65.4146   92.1889   13.1811 C.ar    1  UNL1        0.1358
      9 C          65.1291   90.9036   13.8998 C.ar    1  UNL1        0.0553
     10 O          66.1744   93.4175   13.5851 O.3     1  UNL1       -0.4777
     11 C          66.1239   94.3900   12.4442 C.3     1  UNL1        0.1855
     12 C          66.6959   95.7659   12.2720 C.3     1  UNL1        0.1130
     13 N          66.4770   96.5142   10.9906 N.3     1  UNL1       -0.2944
     14 C          65.6859   95.8866    9.8814 C.3     1  UNL1        0.0691
     15 C          65.1139   94.5107   10.0535 C.3     1  UNL1        0.0252
     16 C          65.3328   93.7624   11.3350 C.3     1  UNL1        0.0681
     17 H          67.4001   96.7249   10.6113 H       1  UNL1        0.1234
     18 C          62.8926   86.0025   16.7691 C.ar    1  UNL1        0.1431
     19 C          63.1818   84.6903   16.1025 C.ar    1  UNL1        0.0738
     20 C          63.7565   84.6634   14.7172 C.ar    1  UNL1        0.1427
     21 C          64.0419   85.9486   13.9986 C.ar    1  UNL1        0.0558
     22 C          63.7527   87.2608   14.6652 C.ar    1  UNL1        0.1163
     23 C          63.1780   87.2878   16.0504 C.ar    1  UNL1        0.0558
     24 C          62.6784   87.1415   19.0944 C.3     1  UNL1        0.2525
     25 O          62.3179   86.0295   18.1545 O.3     1  UNL1       -0.4713
     26 O          64.0457   83.3511   14.0507 O.3     1  UNL1       -0.4790
     27 C          62.9417   82.5944   13.3735 C.3     1  UNL1        0.1661
     28 C          62.7543   82.7087   11.8897 C.3     1  UNL1        0.0472
     29 C          62.0250   81.7233   14.1803 C.3     1  UNL1        0.0472
@<TRIPOS>BOND
     1    24    25    1
     2    25    18    1
     3    18    19   ar
     4    19    20   ar
     5    20    26    1
     6    26    27    1
     7    27    28    1
     8    27    29    1
     9    20    21   ar
    10    21    22   ar
    11    22     1    1
    12     1     2    2
    13     1     3    2
    14     1     4    1
    15     4     5   ar
    16     5     6   ar
    17     6     7   ar
    18     7     8   ar
    19     8     9   ar
    20     8    10    1
    21    10    11    1
    22    11    12    1
    23    12    13    1
    24    13    14    1
    25    14    15    1
    26    16    15    1
    27    22    23   ar
    28    23    18   ar
    29     9     4   ar
    30    16    11    1
    31    16     7    1
    32    13    17    1
@<TRIPOS>MOLECULE
*****
 29 32 0 0 0
SMALL
GASTEIGER

@<TRIPOS>ATOM
      1 S          63.5458   87.2008   13.5517 S.O2    1  UNL1        0.0277
      2 O          62.9513   87.4746   12.2020 O.2     1  UNL1       -0.1642
      3 O          64.1403   86.9270   14.9013 O.2     1  UNL1       -0.1642
      4 C          63.3599   85.7282   13.3348 C.ar    1  UNL1        0.1133
      5 C          63.0492   84.8323   14.4970 C.ar    1  UNL1        0.0186
      6 C          62.8633   83.3597   14.2802 C.ar    1  UNL1        0.0002
      7 C          62.9880   82.7831   12.9011 C.ar    1  UNL1        0.0151
      8 C          63.2987   83.6790   11.7389 C.ar    1  UNL1        0.1358
      9 C          63.4846   85.1516   11.9557 C.ar    1  UNL1        0.0553
     10 O          63.3611   82.8307   10.5034 O.3     1  UNL1       -0.4777
     11 C          63.0890   81.4104   10.9021 C.3     1  UNL1        0.1855
     12 C          63.0214   80.1402   10.1072 C.3     1  UNL1        0.1130
     13 N          62.7232   78.8406   10.7942 N.3     1  UNL1       -0.2944
     14 C          62.4926   78.8112   12.2761 C.3     1  UNL1        0.0691
     15 C          62.5602   80.0814   13.0710 C.3     1  UNL1        0.0252
     16 C          62.8584   81.3810   12.3840 C.3     1  UNL1        0.0681
     17 H          63.5112   78.2207   10.6065 H       1  UNL1        0.1234
     18 C          63.8614   90.7126   15.3730 C.ar    1  UNL1        0.1431
     19 C          64.1036   91.6184   14.2022 C.ar    1  UNL1        0.0738
     20 C          64.1599   91.0517   12.8145 C.ar    1  UNL1        0.1427
     21 C          63.9739   89.5792   12.5977 C.ar    1  UNL1        0.0558
     22 C          63.7317   88.6734   13.7685 C.ar    1  UNL1        0.1163
     23 C          63.6755   89.2400   15.1561 C.ar    1  UNL1        0.0558
     24 C          64.6785   92.4408   17.1325 C.3     1  UNL1        0.2525
     25 O          63.8051   91.2793   16.7608 O.3     1  UNL1       -0.4713
     26 O          64.4021   91.9575   11.6437 O.3     1  UNL1       -0.4790
     27 C          65.6520   92.7843   11.5810 C.3     1  UNL1        0.1661
     28 C          65.6837   94.0344   10.7526 C.3     1  UNL1        0.0472
     29 C          66.8704   92.3610   12.3468 C.3     1  UNL1        0.0472
@<TRIPOS>BOND
     1    24    25    1
     2    25    18    1
     3    18    19   ar
     4    19    20   ar
     5    20    26    1
     6    26    27    1
     7    27    28    1
     8    27    29    1
     9    20    21   ar
    10    21    22   ar
    11    22     1    1
    12     1     2    2
    13     1     3    2
    14     1     4    1
    15     4     5   ar
    16     5     6   ar
    17     6     7   ar
    18     7     8   ar
    19     8     9   ar
    20     8    10    1
    21    10    11    1
    22    11    12    1
    23    12    13    1
    24    13    14    1
    25    14    15    1
    26    16    15    1
    27    22    23   ar
    28    23    18   ar
    29     9     4   ar
    30    16    11    1
    31    16     7    1
    32    13    17    1
@<TRIPOS>MOLECULE
*****
 29 32 0 0 0
SMALL
GASTEIGER

@<TRIPOS>ATOM
      1 S          64.8108   90.0310   13.4984 S.O2    1  UNL1        0.0277
      2 O          64.0401   90.3434   12.2500 O.2     1  UNL1       -0.1642
      3 O          65.5814   89.7187   14.7469 O.2     1  UNL1       -0.1642
      4 C          64.2747   88.6302   13.4788 C.ar    1  UNL1        0.1133
      5 C          63.4110   88.1735   12.3407 C.ar    1  UNL1        0.0186
      6 C          62.8750   86.7726   12.3211 C.ar    1  UNL1        0.0002
      7 C          63.2026   85.8285   13.4397 C.ar    1  UNL1        0.0151
      8 C          64.0663   86.2852   14.5778 C.ar    1  UNL1        0.1358
      9 C          64.6024   87.6861   14.5974 C.ar    1  UNL1        0.0553
     10 O          64.2188   85.1387   15.5330 O.3     1  UNL1       -0.4777
     11 C          63.4493   83.9735   14.9851 C.3     1  UNL1        0.1855
     12 C          63.2394   82.5793   15.4972 C.3     1  UNL1        0.1130
     13 N          62.4015   81.6115   14.7155 N.3     1  UNL1       -0.2944
     14 C          61.7734   82.0378   13.4218 C.3     1  UNL1        0.0691
     15 C          61.9833   83.4320   12.9097 C.3     1  UNL1        0.0252
     16 C          62.8213   84.3998   13.6914 C.3     1  UNL1        0.0681
     17 H          61.6414   81.3177   15.3290 H       1  UNL1        0.1234
     18 C          66.5963   93.3457   14.7532 C.ar    1  UNL1        0.1431
     19 C          66.4189   94.2334   13.5572 C.ar    1  UNL1        0.0738
     20 C          65.7054   93.7203   12.3416 C.ar    1  UNL1        0.1427
     21 C          65.1694   92.3196   12.3220 C.ar    1  UNL1        0.0558
     22 C          65.3468   91.4318   13.5180 C.ar    1  UNL1        0.1163
     23 C          66.0603   91.9449   14.7336 C.ar    1  UNL1        0.0558
     24 C          68.8092   93.8892   16.0014 C.3     1  UNL1        0.2525
     25 O          67.3098   93.8588   15.9688 O.3     1  UNL1       -0.4713
     26 O          65.5279   94.6080   11.1456 O.3     1  UNL1       -0.4790
     27 C          66.6670   94.8194   10.1927 C.3     1  UNL1        0.1661
     28 C          67.4106   93.6401    9.6392 C.3     1  UNL1        0.0472
     29 C          67.0624   96.2101    9.7933 C.3     1  UNL1        0.0472
@<TRIPOS>BOND
     1    24    25    1
     2    25    18    1
     3    18    19   ar
     4    19    20   ar
     5    20    26    1
     6    26    27    1
     7    27    28    1
     8    27    29    1
     9    20    21   ar
    10    21    22   ar
    11    22     1    1
    12     1     2    2
    13     1     3    2
    14     1     4    1
    15     4     5   ar
    16     5     6   ar
    17     6     7   ar
    18     7     8   ar
    19     8     9   ar
    20     8    10    1
    21    10    11    1
    22    11    12    1
    23    12    13    1
    24    13    14    1
    25    14    15    1
    26    16    15    1
    27    22    23   ar
    28    23    18   ar
    29     9     4   ar
    30    16    11    1
    31    16     7    1
    32    13    17    1
@<TRIPOS>MOLECULE
*****
 29 32 0 0 0
SMALL
GASTEIGER

@<TRIPOS>ATOM
      1 S          63.3826   86.7546   12.8866 S.O2    1  UNL1        0.0277
      2 O          62.6314   86.9578   11.6043 O.2     1  UNL1       -0.1642
      3 O          64.1338   86.5514   14.1690 O.2     1  UNL1       -0.1642
      4 C          63.2137   85.2703   12.7504 C.ar    1  UNL1        0.1133
      5 C          62.8695   84.4412   13.9521 C.ar    1  UNL1        0.0186
      6 C          62.7005   82.9570   13.8159 C.ar    1  UNL1        0.0002
      7 C          62.8758   82.3019   12.4779 C.ar    1  UNL1        0.0151
      8 C          63.2200   83.1310   11.2762 C.ar    1  UNL1        0.1358
      9 C          63.3889   84.6152   11.4125 C.ar    1  UNL1        0.0553
     10 O          63.3298   82.2125   10.0954 O.3     1  UNL1       -0.4777
     11 C          63.0535   80.8157   10.5673 C.3     1  UNL1        0.1855
     12 C          63.0212   79.5007    9.8465 C.3     1  UNL1        0.1130
     13 N          62.7083   78.2409   10.5981 N.3     1  UNL1       -0.2944
     14 C          62.4277   78.2962   12.0706 C.3     1  UNL1        0.0691
     15 C          62.4600   79.6112   12.7915 C.3     1  UNL1        0.0252
     16 C          62.7729   80.8710   12.0398 C.3     1  UNL1        0.0681
     17 H          63.5062   77.6179   10.4736 H       1  UNL1        0.1234
     18 C          63.1177   90.6431   12.1394 C.ar    1  UNL1        0.1431
     19 C          63.8893   91.2072   13.2954 C.ar    1  UNL1        0.0738
     20 C          64.4921   90.2870   14.3151 C.ar    1  UNL1        0.1427
     21 C          64.3232   88.8028   14.1789 C.ar    1  UNL1        0.0558
     22 C          63.5515   88.2388   13.0229 C.ar    1  UNL1        0.1163
     23 C          62.9487   89.1589   12.0031 C.ar    1  UNL1        0.0558
     24 C          62.8468   91.3932    9.6666 C.3     1  UNL1        0.2525
     25 O          62.5149   91.5634   11.1195 O.3     1  UNL1       -0.4713
     26 O          65.2638   90.8510   15.4711 O.3     1  UNL1       -0.4790
     27 C          66.4310   91.7596   15.2219 C.3     1  UNL1        0.1661
     28 C          67.2548   91.5987   13.9788 C.3     1  UNL1        0.0472
     29 C          66.7743   92.8292   16.2160 C.3     1  UNL1        0.0472
@<TRIPOS>BOND
     1    24    25    1
     2    25    18    1
     3    18    19   ar
     4    19    20   ar
     5    20    26    1
     6    26    27    1
     7    27    28    1
     8    27    29    1
     9    20    21   ar
    10    21    22   ar
    11    22     1    1
    12     1     2    2
    13     1     3    2
    14     1     4    1
    15     4     5   ar
    16     5     6   ar
    17     6     7   ar
    18     7     8   ar
    19     8     9   ar
    20     8    10    1
    21    10    11    1
    22    11    12    1
    23    12    13    1
    24    13    14    1
    25    14    15    1
    26    16    15    1
    27    22    23   ar
    28    23    18   ar
    29     9     4   ar
    30    16    11    1
    31    16     7    1
    32    13    17    1
@<TRIPOS>MOLECULE
*****
 29 32 0 0 0
SMALL
GASTEIGER

@<TRIPOS>ATOM
      1 S          64.2595   88.5203   13.8572 S.O2    1  UNL1        0.0277
      2 O          65.0340   88.3667   15.1326 O.2     1  UNL1       -0.1642
      3 O          63.4850   88.6739   12.5818 O.2     1  UNL1       -0.1642
      4 C          63.8587   87.0765   13.9267 C.ar    1  UNL1        0.1133
      5 C          63.5911   86.4355   15.2562 C.ar    1  UNL1        0.0186
      6 C          63.1903   84.9917   15.3257 C.ar    1  UNL1        0.0002
      7 C          63.0571   84.1889   14.0657 C.ar    1  UNL1        0.0151
      8 C          63.3247   84.8298   12.7362 C.ar    1  UNL1        0.1358
      9 C          63.7255   86.2736   12.6667 C.ar    1  UNL1        0.0553
     10 O          63.1141   83.7942   11.6717 O.3     1  UNL1       -0.4777
     11 C          62.7164   82.5133   12.3432 C.3     1  UNL1        0.1855
     12 C          62.3818   81.1563   11.7986 C.3     1  UNL1        0.1130
     13 N          62.0119   80.0433   12.7336 N.3     1  UNL1       -0.2944
     14 C          61.9767   80.2872   14.2132 C.3     1  UNL1        0.0691
     15 C          62.3113   81.6441   14.7578 C.3     1  UNL1        0.0252
     16 C          62.6812   82.7572   13.8228 C.3     1  UNL1        0.0681
     17 H          62.6820   79.2907   12.5751 H       1  UNL1        0.1234
     18 C          65.6745   92.0743   14.9139 C.ar    1  UNL1        0.1431
     19 C          65.4620   92.8516   13.6487 C.ar    1  UNL1        0.0738
     20 C          64.8486   92.1851   12.4531 C.ar    1  UNL1        0.1427
     21 C          64.4478   90.7414   12.5226 C.ar    1  UNL1        0.0558
     22 C          64.6604   89.9641   13.7877 C.ar    1  UNL1        0.1163
     23 C          65.2737   90.6305   14.9834 C.ar    1  UNL1        0.0558
     24 C          67.6737   93.3083   16.0233 C.3     1  UNL1        0.2525
     25 O          66.2878   92.7408   16.1096 O.3     1  UNL1       -0.4713
     26 O          64.6361   92.9624   11.1879 O.3     1  UNL1       -0.4790
     27 C          65.7627   93.7579   10.5981 C.3     1  UNL1        0.1661
     28 C          66.9785   93.0574   10.0680 C.3     1  UNL1        0.0472
     29 C          65.6735   95.2541   10.5385 C.3     1  UNL1        0.0472
@<TRIPOS>BOND
     1    24    25    1
     2    25    18    1
     3    18    19   ar
     4    19    20   ar
     5    20    26    1
     6    26    27    1
     7    27    28    1
     8    27    29    1
     9    20    21   ar
    10    21    22   ar
    11    22     1    1
    12     1     2    2
    13     1     3    2
    14     1     4    1
    15     4     5   ar
    16     5     6   ar
    17     6     7   ar
    18     7     8   ar
    19     8     9   ar
    20     8    10    1
    21    10    11    1
    22    11    12    1
    23    12    13    1
    24    13    14    1
    25    14    15    1
    26    16    15    1
    27    22    23   ar
    28    23    18   ar
    29     9     4   ar
    30    16    11    1
    31    16     7    1
    32    13    17    1
