@<TRIPOS>MOLECULE
*****
 30 33 0 0 0
SMALL
GASTEIGER

@<TRIPOS>ATOM
      1 C          61.3448   89.1743   11.1515 C.ar    1  UNL1        0.2490
      2 N          60.4689   90.0669   10.3233 N.ar    1  UNL1       -0.1863
      3 C          59.9323   89.5816    9.0093 C.ar    1  UNL1        0.2225
      4 N          60.2716   88.2036    8.5236 N.ar    1  UNL1       -0.1420
      5 N          61.1474   87.3109    9.3518 N.ar    1  UNL1       -0.2193
      6 C          61.6489   85.9141    9.1338 C.ar    1  UNL1        0.1371
      7 C          62.4953   85.5362   10.3131 C.ar    1  UNL1        0.1552
      8 C          62.5171   86.6994   11.2599 C.ar    1  UNL1        0.0359
      9 C          63.2442   86.7559   12.5706 C.3     1  UNL1        0.0360
     10 C          61.6840   87.7963   10.6658 C.ar    1  UNL1        0.1353
     11 O          61.8813   89.6596   12.4655 O.3     1  UNL1       -0.4328
     12 C          68.5055   92.9520   15.0930 C.3     1  UNL1        0.0521
     13 C          67.3011   92.4610   14.3458 C.2     1  UNL1        0.0591
     14 C          66.2395   91.5493   14.8861 C.2     1  UNL1        0.0182
     15 C          65.2291   91.3203   13.8013 C.2     1  UNL1        0.0455
     16 C          63.9675   90.5100   13.7596 C.2     1  UNL1        0.1752
     17 F          63.5304   89.7399   14.9704 F       1  UNL1       -0.2009
     18 C          63.1429   90.4699   12.5072 C.2     1  UNL1        0.1706
     19 C          63.5801   91.2400   11.2965 C.2     1  UNL1        0.0201
     20 C          64.8417   92.0503   11.3382 C.3     1  UNL1        0.0751
     21 C          65.6662   92.0904   12.5906 C.2     1  UNL1        0.0653
     22 N          66.9468   92.7954   12.9271 N.2     1  UNL1       -0.2536
     23 O          63.1969   84.2252   10.5108 O.3     1  UNL1       -0.4741
     24 C          62.8355   83.3490   11.6734 C.3     1  UNL1        0.2073
     25 C          63.9024   82.8738   12.6147 C.3     1  UNL1        0.0726
     26 C          63.7034   81.6097   13.3974 C.3     1  UNL1        0.1547
     27 S          62.3216   81.1855   13.7982 S.O2    1  UNL1       -0.0081
     28 C          60.9398   80.7613   14.1990 C.3     1  UNL1        0.1760
     29 O          62.3526   80.1035   12.7598 O.2     1  UNL1       -0.1729
     30 O          62.2906   82.2675   14.8366 O.2     1  UNL1       -0.1729
@<TRIPOS>BOND
     1    12    13    1
     2    13    14    2
     3    14    15    1
     4    15    16    2
     5    16    17    1
     6    16    18    1
     7    18    11    1
     8    11     1    1
     9     1     2   ar
    10     2     3   ar
    11     3     4   ar
    12     4     5   ar
    13     5     6   ar
    14     6     7   ar
    15     7    23    1
    16    23    24    1
    17    24    25    1
    18    25    26    1
    19    26    27    1
    20    27    28    1
    21    27    29    2
    22    27    30    2
    23     7     8   ar
    24     8     9    1
    25     8    10   ar
    26    18    19    2
    27    19    20    1
    28    20    21    1
    29    21    22    2
    30    22    13    1
    31    21    15    1
    32    10     1   ar
    33    10     5   ar
@<TRIPOS>MOLECULE
*****
 30 33 0 0 0
SMALL
GASTEIGER

@<TRIPOS>ATOM
      1 C          62.5262   86.7905   11.8971 C.ar    1  UNL1        0.2490
      2 N          61.6688   86.1878   10.8240 N.ar    1  UNL1       -0.1863
      3 C          61.0296   87.0686    9.7916 C.ar    1  UNL1        0.2225
      4 N          61.2479   88.5520    9.8323 N.ar    1  UNL1       -0.1420
      5 N          62.1054   89.1547   10.9054 N.ar    1  UNL1       -0.2193
      6 C          62.4986   90.5724   11.1980 C.ar    1  UNL1        0.1371
      7 C          63.3807   90.5679   12.4111 C.ar    1  UNL1        0.1552
      8 C          63.5327   89.1474   12.8683 C.ar    1  UNL1        0.0359
      9 C          64.3325   88.6819   14.0489 C.3     1  UNL1        0.0360
     10 C          62.7445   88.2740   11.9378 C.ar    1  UNL1        0.1353
     11 O          63.1654   85.9098   12.9294 O.3     1  UNL1       -0.4328
     12 C          62.9128   78.5257   10.2773 C.3     1  UNL1        0.0521
     13 C          62.8627   79.8225   11.0294 C.2     1  UNL1        0.0591
     14 C          63.2458   81.1692   10.4914 C.2     1  UNL1        0.0182
     15 C          63.0406   82.1793   11.5811 C.2     1  UNL1        0.0455
     16 C          63.2522   83.6636   11.6266 C.2     1  UNL1        0.1752
     17 F          63.7621   84.3860   10.4150 F       1  UNL1       -0.2009
     18 C          62.9538   84.4255   12.8839 C.2     1  UNL1        0.1706
     19 C          62.4439   83.7031   14.0955 C.2     1  UNL1        0.0201
     20 C          62.2323   82.2187   14.0499 C.3     1  UNL1        0.0751
     21 C          62.5307   81.4569   12.7927 C.2     1  UNL1        0.0653
     22 N          62.4207   80.0003   12.4518 N.2     1  UNL1       -0.2536
     23 O          64.0018   91.7723   13.0542 O.3     1  UNL1       -0.4741
     24 C          65.2380   92.3838   12.4644 C.3     1  UNL1        0.2073
     25 C          66.5706   92.1565   13.1143 C.3     1  UNL1        0.0726
     26 C          66.6803   92.1271   14.6101 C.3     1  UNL1        0.1547
     27 S          67.7800   92.8819   15.2964 S.O2    1  UNL1       -0.0081
     28 C          68.8796   93.6367   15.9827 C.3     1  UNL1        0.1760
     29 O          66.8659   93.1629   16.4520 O.2     1  UNL1       -0.1729
     30 O          68.6940   92.6009   14.1407 O.2     1  UNL1       -0.1729
@<TRIPOS>BOND
     1    12    13    1
     2    13    14    2
     3    14    15    1
     4    15    16    2
     5    16    17    1
     6    16    18    1
     7    18    11    1
     8    11     1    1
     9     1     2   ar
    10     2     3   ar
    11     3     4   ar
    12     4     5   ar
    13     5     6   ar
    14     6     7   ar
    15     7    23    1
    16    23    24    1
    17    24    25    1
    18    25    26    1
    19    26    27    1
    20    27    28    1
    21    27    29    2
    22    27    30    2
    23     7     8   ar
    24     8     9    1
    25     8    10   ar
    26    18    19    2
    27    19    20    1
    28    20    21    1
    29    21    22    2
    30    22    13    1
    31    21    15    1
    32    10     1   ar
    33    10     5   ar
@<TRIPOS>MOLECULE
*****
 30 33 0 0 0
SMALL
GASTEIGER

@<TRIPOS>ATOM
      1 C          62.4664   86.8202   11.8411 C.ar    1  UNL1        0.2490
      2 N          61.5784   86.2010   10.8029 N.ar    1  UNL1       -0.1863
      3 C          60.8925   87.0679    9.7890 C.ar    1  UNL1        0.2225
      4 N          61.0946   88.5540    9.8133 N.ar    1  UNL1       -0.1420
      5 N          61.9826   89.1732   10.8515 N.ar    1  UNL1       -0.2193
      6 C          62.3692   90.5971   11.1217 C.ar    1  UNL1        0.1371
      7 C          63.2941   90.6103   12.3025 C.ar    1  UNL1        0.1552
      8 C          63.4791   89.1945   12.7621 C.ar    1  UNL1        0.0359
      9 C          64.3260   88.7456   13.9160 C.3     1  UNL1        0.0360
     10 C          62.6685   88.3063   11.8654 C.ar    1  UNL1        0.1353
     11 O          63.1524   85.9533   12.8550 O.3     1  UNL1       -0.4328
     12 C          62.9097   78.5260   10.3253 C.3     1  UNL1        0.0521
     13 C          62.8592   79.8348   11.0564 C.2     1  UNL1        0.0591
     14 C          63.2357   81.1737   10.4945 C.2     1  UNL1        0.0182
     15 C          63.0325   82.2009   11.5685 C.2     1  UNL1        0.0455
     16 C          63.2398   83.6863   11.5888 C.2     1  UNL1        0.1752
     17 F          63.7419   84.3903   10.3630 F       1  UNL1       -0.2009
     18 C          62.9451   84.4679   12.8347 C.2     1  UNL1        0.1706
     19 C          62.4431   83.7639   14.0604 C.2     1  UNL1        0.0201
     20 C          62.2358   82.2784   14.0402 C.3     1  UNL1        0.0751
     21 C          62.5305   81.4969   12.7942 C.2     1  UNL1        0.0653
     22 N          62.4234   80.0346   12.4777 N.2     1  UNL1       -0.2536
     23 O          63.9235   91.8258   12.9160 O.3     1  UNL1       -0.4741
     24 C          65.2744   92.2853   12.4534 C.3     1  UNL1        0.2073
     25 C          65.4464   92.8333   11.0678 C.3     1  UNL1        0.0726
     26 C          66.8225   93.0831   10.5255 C.3     1  UNL1        0.1547
     27 S          67.1400   94.3883    9.8579 S.O2    1  UNL1       -0.0081
     28 C          67.4574   95.6935    9.1903 C.3     1  UNL1        0.1760
     29 O          68.5507   93.9306    9.6338 O.2     1  UNL1       -0.1729
     30 O          65.7292   94.8461   10.0820 O.2     1  UNL1       -0.1729
@<TRIPOS>BOND
     1    12    13    1
     2    13    14    2
     3    14    15    1
     4    15    16    2
     5    16    17    1
     6    16    18    1
     7    18    11    1
     8    11     1    1
     9     1     2   ar
    10     2     3   ar
    11     3     4   ar
    12     4     5   ar
    13     5     6   ar
    14     6     7   ar
    15     7    23    1
    16    23    24    1
    17    24    25    1
    18    25    26    1
    19    26    27    1
    20    27    28    1
    21    27    29    2
    22    27    30    2
    23     7     8   ar
    24     8     9    1
    25     8    10   ar
    26    18    19    2
    27    19    20    1
    28    20    21    1
    29    21    22    2
    30    22    13    1
    31    21    15    1
    32    10     1   ar
    33    10     5   ar
@<TRIPOS>MOLECULE
*****
 30 33 0 0 0
SMALL
GASTEIGER

@<TRIPOS>ATOM
      1 C          62.4120   87.3375   11.6390 C.ar    1  UNL1        0.2490
      2 N          61.5881   86.8228   10.4961 N.ar    1  UNL1       -0.1863
      3 C          61.1257   87.7622    9.4220 C.ar    1  UNL1        0.2225
      4 N          61.4873   89.2163    9.4907 N.ar    1  UNL1       -0.1420
      5 N          62.3112   89.7311   10.6336 N.ar    1  UNL1       -0.2193
      6 C          62.8193   91.1024   10.9670 C.ar    1  UNL1        0.1371
      7 C          63.5956   91.0107   12.2471 C.ar    1  UNL1        0.1552
      8 C          63.5674   89.5825   12.7049 C.ar    1  UNL1        0.0359
      9 C          64.2186   89.0403   13.9427 C.3     1  UNL1        0.0360
     10 C          62.7735   88.7917   11.7077 C.ar    1  UNL1        0.1353
     11 O          62.8743   86.3982   12.7131 O.3     1  UNL1       -0.4328
     12 C          62.0818   78.6560   13.7398 C.3     1  UNL1        0.0521
     13 C          62.3372   80.0624   13.2852 C.2     1  UNL1        0.0591
     14 C          62.0671   81.3077   14.0767 C.2     1  UNL1        0.0182
     15 C          62.4705   82.4854   13.2399 C.2     1  UNL1        0.0455
     16 C          62.4320   83.9621   13.5006 C.2     1  UNL1        0.1752
     17 F          61.9126   84.4794   14.8093 F       1  UNL1       -0.2009
     18 C          62.9128   84.9215   12.4525 C.2     1  UNL1        0.1706
     19 C          63.4322   84.4042   11.1438 C.2     1  UNL1        0.0201
     20 C          63.4707   82.9274   10.8832 C.3     1  UNL1        0.0751
     21 C          62.9898   81.9681   11.9312 C.2     1  UNL1        0.0653
     22 N          62.9074   80.4706   11.9592 N.2     1  UNL1       -0.2536
     23 O          64.2801   92.1474   12.9467 O.3     1  UNL1       -0.4741
     24 C          65.7551   92.3564   12.7720 C.3     1  UNL1        0.2073
     25 C          66.2815   92.9680   11.5076 C.3     1  UNL1        0.0726
     26 C          66.3373   94.4600   11.3628 C.3     1  UNL1        0.1547
     27 S          66.7388   95.0720   10.0535 S.O2    1  UNL1       -0.0081
     28 C          67.1403   95.6839    8.7442 C.3     1  UNL1        0.1760
     29 O          65.5127   95.9356   10.0812 O.2     1  UNL1       -0.1729
     30 O          67.9649   94.2083   10.0258 O.2     1  UNL1       -0.1729
@<TRIPOS>BOND
     1    12    13    1
     2    13    14    2
     3    14    15    1
     4    15    16    2
     5    16    17    1
     6    16    18    1
     7    18    11    1
     8    11     1    1
     9     1     2   ar
    10     2     3   ar
    11     3     4   ar
    12     4     5   ar
    13     5     6   ar
    14     6     7   ar
    15     7    23    1
    16    23    24    1
    17    24    25    1
    18    25    26    1
    19    26    27    1
    20    27    28    1
    21    27    29    2
    22    27    30    2
    23     7     8   ar
    24     8     9    1
    25     8    10   ar
    26    18    19    2
    27    19    20    1
    28    20    21    1
    29    21    22    2
    30    22    13    1
    31    21    15    1
    32    10     1   ar
    33    10     5   ar
@<TRIPOS>MOLECULE
*****
 30 33 0 0 0
SMALL
GASTEIGER

@<TRIPOS>ATOM
      1 C          63.2789   83.2732   12.5238 C.ar    1  UNL1        0.2490
      2 N          62.7137   81.9314   12.1633 N.ar    1  UNL1       -0.1863
      3 C          62.0232   81.1035   13.2062 C.ar    1  UNL1        0.2225
      4 N          61.8978   81.6175   14.6098 N.ar    1  UNL1       -0.1420
      5 N          62.4630   82.9593   14.9704 N.ar    1  UNL1       -0.2193
      6 C          62.4911   83.7225   16.2614 C.ar    1  UNL1        0.1371
      7 C          63.1990   85.0221   16.0164 C.ar    1  UNL1        0.1552
      8 C          63.6084   85.0620   14.5739 C.ar    1  UNL1        0.0359
      9 C          64.3437   86.1804   13.8966 C.3     1  UNL1        0.0360
     10 C          63.1535   83.7872   13.9274 C.ar    1  UNL1        0.1353
     11 O          63.9695   84.1010   11.4809 O.3     1  UNL1       -0.4328
     12 C          58.6856   88.2603    7.4307 C.3     1  UNL1        0.0521
     13 C          59.7778   87.3705    7.9456 C.2     1  UNL1        0.0591
     14 C          60.1553   87.1805    9.3849 C.2     1  UNL1        0.0182
     15 C          61.2952   86.2070    9.4405 C.2     1  UNL1        0.0455
     16 C          62.0776   85.6423   10.5889 C.2     1  UNL1        0.1752
     17 F          61.7506   86.0539   11.9938 F       1  UNL1       -0.2009
     18 C          63.1871   84.6658   10.3325 C.2     1  UNL1        0.1706
     19 C          63.5140   84.2541    8.9276 C.2     1  UNL1        0.0201
     20 C          62.7316   84.8190    7.7792 C.3     1  UNL1        0.0751
     21 C          61.6222   85.7954    8.0357 C.2     1  UNL1        0.0653
     22 N          60.6844   86.5145    7.1118 N.2     1  UNL1       -0.2536
     23 O          63.4530   86.0935   17.0349 O.3     1  UNL1       -0.4741
     24 C          62.5476   87.2872   17.1095 C.3     1  UNL1        0.2073
     25 C          63.1213   88.6703   17.0210 C.3     1  UNL1        0.0726
     26 C          63.1448   89.3897   15.7049 C.3     1  UNL1        0.1547
     27 S          64.1048   90.5212   15.4857 S.O2    1  UNL1       -0.0081
     28 C          65.0649   91.6527   15.2666 C.3     1  UNL1        0.1760
     29 O          63.4929   91.2633   16.6367 O.2     1  UNL1       -0.1729
     30 O          64.7167   89.7790   14.3347 O.2     1  UNL1       -0.1729
@<TRIPOS>BOND
     1    12    13    1
     2    13    14    2
     3    14    15    1
     4    15    16    2
     5    16    17    1
     6    16    18    1
     7    18    11    1
     8    11     1    1
     9     1     2   ar
    10     2     3   ar
    11     3     4   ar
    12     4     5   ar
    13     5     6   ar
    14     6     7   ar
    15     7    23    1
    16    23    24    1
    17    24    25    1
    18    25    26    1
    19    26    27    1
    20    27    28    1
    21    27    29    2
    22    27    30    2
    23     7     8   ar
    24     8     9    1
    25     8    10   ar
    26    18    19    2
    27    19    20    1
    28    20    21    1
    29    21    22    2
    30    22    13    1
    31    21    15    1
    32    10     1   ar
    33    10     5   ar
@<TRIPOS>MOLECULE
*****
 30 33 0 0 0
SMALL
GASTEIGER

@<TRIPOS>ATOM
      1 C          63.1257   88.5770   12.4373 C.ar    1  UNL1        0.2490
      2 N          63.7079   87.7614   13.5534 N.ar    1  UNL1       -0.1863
      3 C          63.6118   86.2649   13.5179 C.ar    1  UNL1        0.2225
      4 N          62.9336   85.5840   12.3662 N.ar    1  UNL1       -0.1420
      5 N          62.3515   86.3996   11.2501 N.ar    1  UNL1       -0.2193
      6 C          61.6297   86.0112    9.9938 C.ar    1  UNL1        0.1371
      7 C          61.2797   87.2676    9.2529 C.ar    1  UNL1        0.1552
      8 C          61.7851   88.4325   10.0513 C.ar    1  UNL1        0.0359
      9 C          61.6516   89.8799    9.6805 C.3     1  UNL1        0.0360
     10 C          62.4475   87.8961   11.2856 C.ar    1  UNL1        0.1353
     11 O          63.2218   90.0735   12.4728 O.3     1  UNL1       -0.4328
     12 C          68.8953   94.2185   15.9733 C.3     1  UNL1        0.0521
     13 C          67.7064   93.3972   15.5710 C.2     1  UNL1        0.0591
     14 C          67.3587   92.9742   14.1745 C.2     1  UNL1        0.0182
     15 C          66.0938   92.1703   14.2349 C.2     1  UNL1        0.0455
     16 C          65.2812   91.4960   13.1696 C.2     1  UNL1        0.1752
     17 F          65.7154   91.5698   11.7357 F       1  UNL1       -0.2009
     18 C          64.0344   90.7478   13.5381 C.2     1  UNL1        0.1706
     19 C          63.6002   90.6740   14.9720 C.2     1  UNL1        0.0201
     20 C          64.4128   91.3484   16.0374 C.3     1  UNL1        0.0751
     21 C          65.6596   92.0965   15.6688 C.2     1  UNL1        0.0653
     22 N          66.6562   92.8548   16.4945 N.2     1  UNL1       -0.2536
     23 O          60.5520   87.3454    7.9435 O.3     1  UNL1       -0.4741
     24 C          59.1561   87.8919    7.8926 C.3     1  UNL1        0.2073
     25 C          58.8928   89.2173    7.2413 C.3     1  UNL1        0.0726
     26 C          59.6941   89.6373    6.0448 C.3     1  UNL1        0.1547
     27 S          59.3332   90.8899    5.3026 S.O2    1  UNL1       -0.0081
     28 C          58.9724   92.1424    4.5604 C.3     1  UNL1        0.1760
     29 O          60.7791   91.1082    4.9681 O.2     1  UNL1       -0.1729
     30 O          57.8874   90.6715    5.6372 O.2     1  UNL1       -0.1729
@<TRIPOS>BOND
     1    12    13    1
     2    13    14    2
     3    14    15    1
     4    15    16    2
     5    16    17    1
     6    16    18    1
     7    18    11    1
     8    11     1    1
     9     1     2   ar
    10     2     3   ar
    11     3     4   ar
    12     4     5   ar
    13     5     6   ar
    14     6     7   ar
    15     7    23    1
    16    23    24    1
    17    24    25    1
    18    25    26    1
    19    26    27    1
    20    27    28    1
    21    27    29    2
    22    27    30    2
    23     7     8   ar
    24     8     9    1
    25     8    10   ar
    26    18    19    2
    27    19    20    1
    28    20    21    1
    29    21    22    2
    30    22    13    1
    31    21    15    1
    32    10     1   ar
    33    10     5   ar
@<TRIPOS>MOLECULE
*****
 30 33 0 0 0
SMALL
GASTEIGER

@<TRIPOS>ATOM
      1 C          63.6076   86.9536   14.5610 C.ar    1  UNL1        0.2490
      2 N          63.2187   85.6508   15.1945 N.ar    1  UNL1       -0.1863
      3 C          62.7805   85.6154   16.6286 C.ar    1  UNL1        0.2225
      4 N          62.7313   86.8829   17.4293 N.ar    1  UNL1       -0.1420
      5 N          63.1203   88.1857   16.7957 N.ar    1  UNL1       -0.2193
      6 C          63.1714   89.5862   17.3306 C.ar    1  UNL1        0.1371
      7 C          63.6412   90.4870   16.2271 C.ar    1  UNL1        0.1552
      8 C          63.8804   89.6433   15.0102 C.ar    1  UNL1        0.0359
      9 C          64.3577   90.1355   13.6760 C.3     1  UNL1        0.0360
     10 C          63.5584   88.2210   15.3616 C.ar    1  UNL1        0.1353
     11 O          64.0458   86.9889   13.1268 O.3     1  UNL1       -0.4328
     12 C          59.0707   88.5559    7.2603 C.3     1  UNL1        0.0521
     13 C          59.9412   87.9831    8.3392 C.2     1  UNL1        0.0591
     14 C          60.8601   88.7591    9.2356 C.2     1  UNL1        0.0182
     15 C          61.5325   87.7894   10.1616 C.2     1  UNL1        0.0455
     16 C          62.5380   87.9810   11.2580 C.2     1  UNL1        0.1752
     17 F          63.0415   89.3564   11.5819 F       1  UNL1       -0.2009
     18 C          63.0402   86.7972   12.0304 C.2     1  UNL1        0.1706
     19 C          62.5368   85.4219   11.7065 C.2     1  UNL1        0.0201
     20 C          61.5312   85.2303   10.6100 C.3     1  UNL1        0.0751
     21 C          61.0290   86.4140    9.8376 C.2     1  UNL1        0.0653
     22 N          60.0456   86.5338    8.7114 N.2     1  UNL1       -0.2536
     23 O          63.8373   91.9710   16.3236 O.3     1  UNL1       -0.4741
     24 C          65.1908   92.5290   16.6504 C.3     1  UNL1        0.2073
     25 C          66.3186   92.3822   15.6724 C.3     1  UNL1        0.0726
     26 C          66.5709   93.4528   14.6525 C.3     1  UNL1        0.1547
     27 S          66.7018   93.0914   13.2025 S.O2    1  UNL1       -0.0081
     28 C          66.8327   92.7301   11.7526 C.3     1  UNL1        0.1760
     29 O          66.1172   94.4185   12.8190 O.2     1  UNL1       -0.1729
     30 O          67.2864   91.7644   13.5861 O.2     1  UNL1       -0.1729
@<TRIPOS>BOND
     1    12    13    1
     2    13    14    2
     3    14    15    1
     4    15    16    2
     5    16    17    1
     6    16    18    1
     7    18    11    1
     8    11     1    1
     9     1     2   ar
    10     2     3   ar
    11     3     4   ar
    12     4     5   ar
    13     5     6   ar
    14     6     7   ar
    15     7    23    1
    16    23    24    1
    17    24    25    1
    18    25    26    1
    19    26    27    1
    20    27    28    1
    21    27    29    2
    22    27    30    2
    23     7     8   ar
    24     8     9    1
    25     8    10   ar
    26    18    19    2
    27    19    20    1
    28    20    21    1
    29    21    22    2
    30    22    13    1
    31    21    15    1
    32    10     1   ar
    33    10     5   ar
@<TRIPOS>MOLECULE
*****
 30 33 0 0 0
SMALL
GASTEIGER

@<TRIPOS>ATOM
      1 C          63.3164   86.4800   15.2375 C.ar    1  UNL1        0.2490
      2 N          62.9039   85.5304   16.3229 N.ar    1  UNL1       -0.1863
      3 C          62.6368   86.0434   17.7069 C.ar    1  UNL1        0.2225
      4 N          62.7821   87.5062   18.0055 N.ar    1  UNL1       -0.1420
      5 N          63.1945   88.4558   16.9201 N.ar    1  UNL1       -0.2193
      6 C          63.4182   89.9391   16.9158 C.ar    1  UNL1        0.1371
      7 C          63.8236   90.3427   15.5292 C.ar    1  UNL1        0.1552
      8 C          63.8505   89.1089   14.6765 C.ar    1  UNL1        0.0359
      9 C          64.2040   89.0513   13.2199 C.3     1  UNL1        0.0360
     10 C          63.4617   87.9428   15.5362 C.ar    1  UNL1        0.1353
     11 O          63.5835   85.9669   13.8536 O.3     1  UNL1       -0.4328
     12 C          62.8104   79.2915    9.7959 C.3     1  UNL1        0.0521
     13 C          62.9091   80.4006   10.8010 C.2     1  UNL1        0.0591
     14 C          63.1825   81.8439   10.4974 C.2     1  UNL1        0.0182
     15 C          63.1940   82.5964   11.7950 C.2     1  UNL1        0.0455
     16 C          63.4126   84.0460   12.1126 C.2     1  UNL1        0.1752
     17 F          63.6788   85.0242   11.0071 F       1  UNL1       -0.2009
     18 C          63.3649   84.5174   13.5359 C.2     1  UNL1        0.1706
     19 C          63.0987   83.5391   14.6414 C.2     1  UNL1        0.0201
     20 C          62.8802   82.0895   14.3237 C.3     1  UNL1        0.0751
     21 C          62.9278   81.6182   12.9005 C.2     1  UNL1        0.0653
     22 N          62.7517   80.2611   12.2862 N.2     1  UNL1       -0.2536
     23 O          64.1456   91.7355   15.0750 O.3     1  UNL1       -0.4741
     24 C          65.5571   92.2388   15.1420 C.3     1  UNL1        0.2073
     25 C          66.3629   92.3817   13.8849 C.3     1  UNL1        0.0726
     26 C          65.6796   92.7012   12.5883 C.3     1  UNL1        0.1547
     27 S          66.4767   92.7804   11.3201 S.O2    1  UNL1       -0.0081
     28 C          67.2738   92.8596   10.0519 C.3     1  UNL1        0.1760
     29 O          67.7081   92.3631   12.0680 O.2     1  UNL1       -0.1729
     30 O          65.2452   93.1977   10.5722 O.2     1  UNL1       -0.1729
@<TRIPOS>BOND
     1    12    13    1
     2    13    14    2
     3    14    15    1
     4    15    16    2
     5    16    17    1
     6    16    18    1
     7    18    11    1
     8    11     1    1
     9     1     2   ar
    10     2     3   ar
    11     3     4   ar
    12     4     5   ar
    13     5     6   ar
    14     6     7   ar
    15     7    23    1
    16    23    24    1
    17    24    25    1
    18    25    26    1
    19    26    27    1
    20    27    28    1
    21    27    29    2
    22    27    30    2
    23     7     8   ar
    24     8     9    1
    25     8    10   ar
    26    18    19    2
    27    19    20    1
    28    20    21    1
    29    21    22    2
    30    22    13    1
    31    21    15    1
    32    10     1   ar
    33    10     5   ar
@<TRIPOS>MOLECULE
*****
 30 33 0 0 0
SMALL
GASTEIGER

@<TRIPOS>ATOM
      1 C          63.5281   87.6546   14.0206 C.ar    1  UNL1        0.2490
      2 N          64.1964   87.4169   15.3423 N.ar    1  UNL1       -0.1863
      3 C          64.6717   86.0414   15.7058 C.ar    1  UNL1        0.2225
      4 N          64.4787   84.9036   14.7476 N.ar    1  UNL1       -0.1420
      5 N          63.8104   85.1413   13.4260 N.ar    1  UNL1       -0.2193
      6 C          63.4843   84.2220   12.2864 C.ar    1  UNL1        0.1371
      7 C          62.8075   85.0293   11.2186 C.ar    1  UNL1        0.1552
      8 C          62.7153   86.4476   11.6983 C.ar    1  UNL1        0.0359
      9 C          62.1096   87.5952   10.9458 C.3     1  UNL1        0.0360
     10 C          63.3351   86.5168   13.0625 C.ar    1  UNL1        0.1353
     11 O          63.0528   89.0301   13.6571 O.3     1  UNL1       -0.4328
     12 C          66.8769   95.0546   10.3852 C.3     1  UNL1        0.0521
     13 C          66.3364   93.9348   11.2243 C.2     1  UNL1        0.0591
     14 C          65.1710   93.0564   10.8776 C.2     1  UNL1        0.0182
     15 C          64.9808   92.0755   11.9964 C.2     1  UNL1        0.0455
     16 C          63.9889   90.9696   12.2039 C.2     1  UNL1        0.1752
     17 F          62.9410   90.6974   11.1656 F       1  UNL1       -0.2009
     18 C          64.0447   90.1359   13.4496 C.2     1  UNL1        0.1706
     19 C          65.0926   90.4081   14.4879 C.2     1  UNL1        0.0201
     20 C          66.0846   91.5140   14.2803 C.3     1  UNL1        0.0751
     21 C          66.0287   92.3477   13.0346 C.2     1  UNL1        0.0653
     22 N          66.8665   93.4968   12.5574 N.2     1  UNL1       -0.2536
     23 O          62.3102   84.5096    9.9023 O.3     1  UNL1       -0.4741
     24 C          62.7256   85.1797    8.6262 C.3     1  UNL1        0.2073
     25 C          61.6910   85.7938    7.7304 C.3     1  UNL1        0.0726
     26 C          60.3326   86.1277    8.2722 C.3     1  UNL1        0.1547
     27 S          59.6320   87.3756    7.8230 S.O2    1  UNL1       -0.0081
     28 C          58.9313   88.6235    7.3739 C.3     1  UNL1        0.1760
     29 O          60.7964   88.1976    8.2903 O.2     1  UNL1       -0.1729
     30 O          58.4675   86.5536    7.3558 O.2     1  UNL1       -0.1729
@<TRIPOS>BOND
     1    12    13    1
     2    13    14    2
     3    14    15    1
     4    15    16    2
     5    16    17    1
     6    16    18    1
     7    18    11    1
     8    11     1    1
     9     1     2   ar
    10     2     3   ar
    11     3     4   ar
    12     4     5   ar
    13     5     6   ar
    14     6     7   ar
    15     7    23    1
    16    23    24    1
    17    24    25    1
    18    25    26    1
    19    26    27    1
    20    27    28    1
    21    27    29    2
    22    27    30    2
    23     7     8   ar
    24     8     9    1
    25     8    10   ar
    26    18    19    2
    27    19    20    1
    28    20    21    1
    29    21    22    2
    30    22    13    1
    31    21    15    1
    32    10     1   ar
    33    10     5   ar
