@<TRIPOS>MOLECULE
*****
 28 33 0 0 0
SMALL
GASTEIGER

@<TRIPOS>ATOM
      1 C          64.1372   90.0689   13.2398 C.3     1  UNL1        0.0578
      2 C          63.2785   90.5500   12.1080 C.3     1  UNL1        0.0163
      3 C          62.6204   89.3549   11.4849 C.3     1  UNL1        0.0058
      4 C          63.0724   88.1350   12.2316 C.3     1  UNL1        0.0240
      5 C          63.6669   87.0883   13.1266 C.3     1  UNL1        0.0301
      6 C          63.4555   85.6035   13.0982 C.ar    1  UNL1       -0.0255
      7 C          64.2431   84.9171   14.1745 C.ar    1  UNL1       -0.0046
      8 C          64.1724   83.4259   14.3204 C.ar    1  UNL1       -0.0003
      9 C          63.3141   82.6212   13.3900 C.ar    1  UNL1       -0.0003
     10 C          62.5265   83.3075   12.3137 C.ar    1  UNL1       -0.0042
     11 C          62.5972   84.7987   12.1678 C.ar    1  UNL1       -0.0217
     12 C          61.7384   85.2800   11.0360 C.3     1  UNL1        0.0520
     13 C          61.5258   86.6847   10.5550 C.ar    1  UNL1       -0.0218
     14 C          60.5835   86.7281    9.3888 C.ar    1  UNL1       -0.0042
     15 C          60.2349   88.0420    8.7546 C.ar    1  UNL1       -0.0003
     16 C          60.8285   89.3125    9.2867 C.ar    1  UNL1       -0.0003
     17 C          61.7709   89.2692   10.4530 C.ar    1  UNL1       -0.0046
     18 C          62.1195   87.9553   11.0871 C.ar    1  UNL1       -0.0261
     19 C          64.0099   88.5762   13.3162 C.3     1  UNL1        0.0203
     20 C          66.8233   92.2354   15.0165 C.3     1  UNL1        0.0481
     21 C          66.9934   92.9984   16.2967 C.3     1  UNL1        0.0084
     22 C          65.7106   92.2711   16.0219 C.3     1  UNL1        0.0225
     23 C          64.5690   91.4639   15.4787 C.3     1  UNL1        0.0724
     24 N          64.9761   90.9293   14.1376 N.3     1  UNL1       -0.2736
     25 C          66.3693   91.4061   13.8520 C.3     1  UNL1        0.0772
     26 O          68.6114   91.9677   13.1509 O.co2   1  UNL1       -0.5491
     27 C          68.1809   92.5528   14.4633 C.2     1  UNL1        0.0510
     28 O          69.1080   93.4551   15.2224 O.co2   1  UNL1       -0.5491
@<TRIPOS>UNITY_ATOM_ATTR
26 1
charge -1
@<TRIPOS>BOND
     1    26    27   ar
     2    27    28   ar
     3    20    27    1
     4    20    21    1
     5    22    21    1
     6    22    23    1
     7    23    24    1
     8    24     1    1
     9     1     2    1
    10     2     3    1
    11     4     3    1
    12     4     5    1
    13     5     6    1
    14     6     7   ar
    15     7     8   ar
    16     8     9   ar
    17     9    10   ar
    18    10    11   ar
    19    11    12    1
    20    12    13    1
    21    13    14   ar
    22    14    15   ar
    23    15    16   ar
    24    16    17   ar
    25    17    18   ar
    26     4    19    1
    27    24    25    1
    28    22    20    1
    29    19     1    1
    30    25    20    1
    31    18     4    1
    32    11     6   ar
    33    18    13   ar
@<TRIPOS>MOLECULE
*****
 28 33 0 0 0
SMALL
GASTEIGER

@<TRIPOS>ATOM
      1 C          62.7190   84.9652   12.6437 C.3     1  UNL1        0.0578
      2 C          63.5017   85.9962   13.4015 C.3     1  UNL1        0.0163
      3 C          63.2562   87.3291   12.7590 C.3     1  UNL1        0.0058
      4 C          62.3218   87.1219   11.6040 C.3     1  UNL1        0.0240
      5 C          61.3943   86.6558   10.5212 C.3     1  UNL1        0.0301
      6 C          60.7205   87.4662    9.4538 C.ar    1  UNL1       -0.0255
      7 C          59.8702   86.6056    8.5671 C.ar    1  UNL1       -0.0046
      8 C          59.1073   87.2218    7.4321 C.ar    1  UNL1       -0.0003
      9 C          59.1947   88.6986    7.1839 C.ar    1  UNL1       -0.0003
     10 C          60.0450   89.5591    8.0706 C.ar    1  UNL1       -0.0042
     11 C          60.8079   88.9429    9.2056 C.ar    1  UNL1       -0.0217
     12 C          61.5906   89.9740    9.9635 C.3     1  UNL1        0.0520
     13 C          62.4793   89.7830   11.1567 C.ar    1  UNL1       -0.0218
     14 C          63.0762   91.0826   11.6092 C.ar    1  UNL1       -0.0042
     15 C          63.9985   91.1129   12.7917 C.ar    1  UNL1       -0.0003
     16 C          64.3239   89.8437   13.5218 C.ar    1  UNL1       -0.0003
     17 C          63.7270   88.5440   13.0694 C.ar    1  UNL1       -0.0046
     18 C          62.8047   88.5137   11.8868 C.ar    1  UNL1       -0.0261
     19 C          61.9898   85.6609   11.5327 C.3     1  UNL1        0.0203
     20 C          62.6941   81.0840   12.6773 C.3     1  UNL1        0.0481
     21 C          62.5641   79.9637   13.6663 C.3     1  UNL1        0.0084
     22 C          62.5129   81.3876   14.1351 C.3     1  UNL1        0.0225
     23 C          62.5002   82.8784   14.2998 C.3     1  UNL1        0.0724
     24 N          62.6735   83.4962   12.9440 N.3     1  UNL1       -0.2736
     25 C          62.7934   82.3871   11.9412 C.3     1  UNL1        0.0772
     26 O          62.6298   78.7285   11.5830 O.co2   1  UNL1       -0.5491
     27 C          62.8411   80.2090   11.4678 C.2     1  UNL1        0.0510
     28 O          63.1995   80.8147   10.1431 O.co2   1  UNL1       -0.5491
@<TRIPOS>UNITY_ATOM_ATTR
26 1
charge -1
@<TRIPOS>BOND
     1    26    27   ar
     2    27    28   ar
     3    20    27    1
     4    20    21    1
     5    22    21    1
     6    22    23    1
     7    23    24    1
     8    24     1    1
     9     1     2    1
    10     2     3    1
    11     4     3    1
    12     4     5    1
    13     5     6    1
    14     6     7   ar
    15     7     8   ar
    16     8     9   ar
    17     9    10   ar
    18    10    11   ar
    19    11    12    1
    20    12    13    1
    21    13    14   ar
    22    14    15   ar
    23    15    16   ar
    24    16    17   ar
    25    17    18   ar
    26     4    19    1
    27    24    25    1
    28    22    20    1
    29    19     1    1
    30    25    20    1
    31    18     4    1
    32    11     6   ar
    33    18    13   ar
@<TRIPOS>MOLECULE
*****
 28 33 0 0 0
SMALL
GASTEIGER

@<TRIPOS>ATOM
      1 C          63.9644   90.6519   12.2476 C.3     1  UNL1        0.0578
      2 C          63.0173   90.9139   11.1143 C.3     1  UNL1        0.0163
      3 C          62.3390   89.6214   10.7689 C.3     1  UNL1        0.0058
      4 C          62.8669   88.5606   11.6887 C.3     1  UNL1        0.0240
      5 C          63.5442   87.6980   12.7119 C.3     1  UNL1        0.0301
      6 C          63.3596   86.2317   12.9691 C.ar    1  UNL1       -0.0255
      7 C          64.2357   85.7574   14.0905 C.ar    1  UNL1       -0.0046
      8 C          64.2042   84.3174   14.5092 C.ar    1  UNL1       -0.0003
      9 C          63.2967   83.3517   13.8065 C.ar    1  UNL1       -0.0003
     10 C          62.4206   83.8260   12.6851 C.ar    1  UNL1       -0.0042
     11 C          62.4521   85.2660   12.2664 C.ar    1  UNL1       -0.0217
     12 C          61.5050   85.5280   11.1331 C.3     1  UNL1        0.0520
     13 C          61.2315   86.8204   10.4225 C.ar    1  UNL1       -0.0218
     14 C          60.2070   86.6451    9.3410 C.ar    1  UNL1       -0.0042
     15 C          59.7886   87.8195    8.5068 C.ar    1  UNL1       -0.0003
     16 C          60.3946   89.1690    8.7541 C.ar    1  UNL1       -0.0003
     17 C          61.4192   89.3444    9.8356 C.ar    1  UNL1       -0.0046
     18 C          61.8376   88.1701   10.6698 C.ar    1  UNL1       -0.0261
     19 C          63.8714   89.1975   12.6026 C.3     1  UNL1        0.0203
     20 C          66.1592   92.8501   14.5748 C.3     1  UNL1        0.0481
     21 C          66.9769   94.1056   14.5019 C.3     1  UNL1        0.0084
     22 C          66.2620   93.6042   13.2822 C.3     1  UNL1        0.0225
     23 C          65.4524   92.8725   12.2532 C.3     1  UNL1        0.0724
     24 N          64.8491   91.6662   12.9097 N.3     1  UNL1       -0.2736
     25 C          65.2861   91.6524   14.3446 C.3     1  UNL1        0.0772
     26 O          67.8220   92.2851   16.4895 O.co2   1  UNL1       -0.5491
     27 C          66.4252   92.5738   16.0250 C.2     1  UNL1        0.0510
     28 O          65.2945   92.5862   17.0105 O.co2   1  UNL1       -0.5491
@<TRIPOS>UNITY_ATOM_ATTR
26 1
charge -1
@<TRIPOS>BOND
     1    26    27   ar
     2    27    28   ar
     3    20    27    1
     4    20    21    1
     5    22    21    1
     6    22    23    1
     7    23    24    1
     8    24     1    1
     9     1     2    1
    10     2     3    1
    11     4     3    1
    12     4     5    1
    13     5     6    1
    14     6     7   ar
    15     7     8   ar
    16     8     9   ar
    17     9    10   ar
    18    10    11   ar
    19    11    12    1
    20    12    13    1
    21    13    14   ar
    22    14    15   ar
    23    15    16   ar
    24    16    17   ar
    25    17    18   ar
    26     4    19    1
    27    24    25    1
    28    22    20    1
    29    19     1    1
    30    25    20    1
    31    18     4    1
    32    11     6   ar
    33    18    13   ar
@<TRIPOS>MOLECULE
*****
 28 33 0 0 0
SMALL
GASTEIGER

@<TRIPOS>ATOM
      1 C          64.2462   88.7241   14.0978 C.3     1  UNL1        0.0578
      2 C          64.5869   87.3410   14.5677 C.3     1  UNL1        0.0163
      3 C          63.9338   86.3617   13.6381 C.3     1  UNL1        0.0058
      4 C          63.1894   87.1395   12.5937 C.3     1  UNL1        0.0240
      5 C          62.5364   88.1339   11.6799 C.3     1  UNL1        0.0301
      6 C          61.6831   87.8759   10.4735 C.ar    1  UNL1       -0.0255
      7 C          61.2274   89.1571    9.8405 C.ar    1  UNL1       -0.0046
      8 C          60.3606   89.1222    8.6168 C.ar    1  UNL1       -0.0003
      9 C          59.9496   87.8060    8.0262 C.ar    1  UNL1       -0.0003
     10 C          60.4053   86.5248    8.6592 C.ar    1  UNL1       -0.0042
     11 C          61.2721   86.5598    9.8829 C.ar    1  UNL1       -0.0217
     12 C          61.6128   85.1766   10.3528 C.3     1  UNL1        0.0520
     13 C          62.4487   84.7679   11.5293 C.ar    1  UNL1       -0.0218
     14 C          62.5392   83.2751   11.6453 C.ar    1  UNL1       -0.0042
     15 C          63.3314   82.6560   12.7584 C.ar    1  UNL1       -0.0003
     16 C          64.0330   83.5295   13.7556 C.ar    1  UNL1       -0.0003
     17 C          63.9425   85.0223   13.6398 C.ar    1  UNL1       -0.0046
     18 C          63.1503   85.6415   12.5266 C.ar    1  UNL1       -0.0261
     19 C          63.3825   88.5996   12.8778 C.3     1  UNL1        0.0203
     20 C          65.9677   92.0038   15.2580 C.3     1  UNL1        0.0481
     21 C          65.7611   93.0910   16.2706 C.3     1  UNL1        0.0084
     22 C          64.7838   91.9567   16.1779 C.3     1  UNL1        0.0225
     23 C          63.9949   90.7225   15.8552 C.3     1  UNL1        0.0724
     24 N          64.6911   90.0066   14.7360 N.3     1  UNL1       -0.2736
     25 C          65.9104   90.7986   14.3668 C.3     1  UNL1        0.0772
     26 O          68.0936   93.4774   15.5007 O.co2   1  UNL1       -0.5491
     27 C          67.2302   92.5684   14.6772 C.2     1  UNL1        0.0510
     28 O          67.6293   92.2240   13.2728 O.co2   1  UNL1       -0.5491
@<TRIPOS>UNITY_ATOM_ATTR
26 1
charge -1
@<TRIPOS>BOND
     1    26    27   ar
     2    27    28   ar
     3    20    27    1
     4    20    21    1
     5    22    21    1
     6    22    23    1
     7    23    24    1
     8    24     1    1
     9     1     2    1
    10     2     3    1
    11     4     3    1
    12     4     5    1
    13     5     6    1
    14     6     7   ar
    15     7     8   ar
    16     8     9   ar
    17     9    10   ar
    18    10    11   ar
    19    11    12    1
    20    12    13    1
    21    13    14   ar
    22    14    15   ar
    23    15    16   ar
    24    16    17   ar
    25    17    18   ar
    26     4    19    1
    27    24    25    1
    28    22    20    1
    29    19     1    1
    30    25    20    1
    31    18     4    1
    32    11     6   ar
    33    18    13   ar
@<TRIPOS>MOLECULE
*****
 28 33 0 0 0
SMALL
GASTEIGER

@<TRIPOS>ATOM
      1 C          62.7468   84.7180   11.9215 C.3     1  UNL1        0.0578
      2 C          63.4601   85.6434   12.8622 C.3     1  UNL1        0.0163
      3 C          63.1710   87.0518   12.4351 C.3     1  UNL1        0.0058
      4 C          62.2790   86.9970   11.2303 C.3     1  UNL1        0.0240
      5 C          61.4039   86.6755   10.0553 C.3     1  UNL1        0.0301
      6 C          60.7228   87.6203    9.1100 C.ar    1  UNL1       -0.0255
      7 C          59.9377   86.8812    8.0673 C.ar    1  UNL1       -0.0046
      8 C          59.1784   87.6419    7.0210 C.ar    1  UNL1       -0.0003
      9 C          59.2042   89.1417    7.0174 C.ar    1  UNL1       -0.0003
     10 C          59.9894   89.8808    8.0601 C.ar    1  UNL1       -0.0042
     11 C          60.7487   89.1201    9.1064 C.ar    1  UNL1       -0.0217
     12 C          61.4620   90.0454   10.0472 C.3     1  UNL1        0.0520
     13 C          62.3256   89.6996   11.2239 C.ar    1  UNL1       -0.0218
     14 C          62.8493   90.9317   11.9003 C.ar    1  UNL1       -0.0042
     15 C          63.7366   90.8071   13.1033 C.ar    1  UNL1       -0.0003
     16 C          64.1002   89.4505   13.6299 C.ar    1  UNL1       -0.0003
     17 C          63.5765   88.2184   12.9534 C.ar    1  UNL1       -0.0046
     18 C          62.6892   88.3429   11.7504 C.ar    1  UNL1       -0.0261
     19 C          62.0169   85.5546   10.9129 C.3     1  UNL1        0.0203
     20 C          62.4570   80.9357   12.7432 C.3     1  UNL1        0.0481
     21 C          62.7951   79.6147   12.1181 C.3     1  UNL1        0.0084
     22 C          63.1086   80.8898   11.3929 C.3     1  UNL1        0.0225
     23 C          63.2965   82.3011   10.9208 C.3     1  UNL1        0.0724
     24 N          62.7610   83.2192   11.9792 N.3     1  UNL1       -0.2736
     25 C          62.2421   82.3752   13.1056 C.3     1  UNL1        0.0772
     26 O          60.4596   80.7095   14.3892 O.co2   1  UNL1       -0.5491
     27 C          61.8675   80.3679   14.0003 C.2     1  UNL1        0.0510
     28 O          62.6858   79.4586   14.8683 O.co2   1  UNL1       -0.5491
@<TRIPOS>UNITY_ATOM_ATTR
26 1
charge -1
@<TRIPOS>BOND
     1    26    27   ar
     2    27    28   ar
     3    20    27    1
     4    20    21    1
     5    22    21    1
     6    22    23    1
     7    23    24    1
     8    24     1    1
     9     1     2    1
    10     2     3    1
    11     4     3    1
    12     4     5    1
    13     5     6    1
    14     6     7   ar
    15     7     8   ar
    16     8     9   ar
    17     9    10   ar
    18    10    11   ar
    19    11    12    1
    20    12    13    1
    21    13    14   ar
    22    14    15   ar
    23    15    16   ar
    24    16    17   ar
    25    17    18   ar
    26     4    19    1
    27    24    25    1
    28    22    20    1
    29    19     1    1
    30    25    20    1
    31    18     4    1
    32    11     6   ar
    33    18    13   ar
@<TRIPOS>MOLECULE
*****
 28 33 0 0 0
SMALL
GASTEIGER

@<TRIPOS>ATOM
      1 C          64.6386   89.6052   13.6912 C.3     1  UNL1        0.0578
      2 C          64.9042   88.3549   14.4760 C.3     1  UNL1        0.0163
      3 C          64.1096   87.2425   13.8587 C.3     1  UNL1        0.0058
      4 C          63.3529   87.8054   12.6922 C.3     1  UNL1        0.0240
      5 C          62.7136   88.6007   11.5928 C.3     1  UNL1        0.0301
      6 C          61.7558   88.1348   10.5366 C.ar    1  UNL1       -0.0255
      7 C          61.3557   89.2574    9.6258 C.ar    1  UNL1       -0.0046
      8 C          60.4006   89.0036    8.4974 C.ar    1  UNL1       -0.0003
      9 C          59.8455   87.6272    8.2798 C.ar    1  UNL1       -0.0003
     10 C          60.2455   86.5046    9.1906 C.ar    1  UNL1       -0.0042
     11 C          61.2007   86.7584   10.3190 C.ar    1  UNL1       -0.0217
     12 C          61.4663   85.5080   11.1039 C.3     1  UNL1        0.0520
     13 C          62.3526   85.3251   12.3002 C.ar    1  UNL1       -0.0218
     14 C          62.3347   83.9053   12.7837 C.ar    1  UNL1       -0.0042
     15 C          63.1564   83.5080   13.9740 C.ar    1  UNL1       -0.0003
     16 C          63.9960   84.5304   14.6808 C.ar    1  UNL1       -0.0003
     17 C          64.0139   85.9503   14.1973 C.ar    1  UNL1       -0.0046
     18 C          63.1922   86.3476   13.0070 C.ar    1  UNL1       -0.0261
     19 C          63.6798   89.2657   12.5887 C.3     1  UNL1        0.0203
     20 C          66.1645   93.1738   13.6399 C.3     1  UNL1        0.0481
     21 C          66.6462   94.2105   14.6111 C.3     1  UNL1        0.0084
     22 C          66.1066   92.9045   15.1144 C.3     1  UNL1        0.0225
     23 C          65.5280   91.5350   15.3130 C.3     1  UNL1        0.0724
     24 N          65.2282   90.9578   13.9614 N.3     1  UNL1       -0.2736
     25 C          65.6217   91.9707   12.9272 C.3     1  UNL1        0.0772
     26 O          67.1032   93.3092   11.2211 O.co2   1  UNL1       -0.5491
     27 C          66.4573   93.9699   12.4027 C.2     1  UNL1        0.0510
     28 O          66.1041   95.4267   12.3473 O.co2   1  UNL1       -0.5491
@<TRIPOS>UNITY_ATOM_ATTR
26 1
charge -1
@<TRIPOS>BOND
     1    26    27   ar
     2    27    28   ar
     3    20    27    1
     4    20    21    1
     5    22    21    1
     6    22    23    1
     7    23    24    1
     8    24     1    1
     9     1     2    1
    10     2     3    1
    11     4     3    1
    12     4     5    1
    13     5     6    1
    14     6     7   ar
    15     7     8   ar
    16     8     9   ar
    17     9    10   ar
    18    10    11   ar
    19    11    12    1
    20    12    13    1
    21    13    14   ar
    22    14    15   ar
    23    15    16   ar
    24    16    17   ar
    25    17    18   ar
    26     4    19    1
    27    24    25    1
    28    22    20    1
    29    19     1    1
    30    25    20    1
    31    18     4    1
    32    11     6   ar
    33    18    13   ar
