@<TRIPOS>MOLECULE
*****
 31 33 0 0 0
SMALL
GASTEIGER

@<TRIPOS>ATOM
      1 C          63.8508   90.5502   14.2354 C.ar    1  UNL1        0.1427
      2 C          65.1785   91.1974   13.9742 C.ar    1  UNL1        0.1421
      3 O          66.2268   91.2181   15.0468 O.3     1  UNL1       -0.5054
      4 C          65.4578   91.8240   12.6403 C.ar    1  UNL1        0.0555
      5 C          64.4095   91.8034   11.5676 C.ar    1  UNL1        0.0712
      6 N          63.0818   91.1561   11.8289 N.ar    1  UNL1       -0.2925
      7 C          62.8025   90.5295   13.1629 C.ar    1  UNL1        0.2683
      8 O          61.4747   89.8822   13.4242 O.2     1  UNL1       -0.2667
      9 C          64.9679   92.4964   10.3602 C.3     1  UNL1        0.1859
     10 O          66.3614   92.9455   10.6867 O.3     1  UNL1       -0.3425
     11 C          66.6642   92.5299   12.0958 C.3     1  UNL1        0.1733
     12 H          66.0523   90.8267   15.8801 H       1  UNL1        0.2922
     13 N          63.4075   88.4367   15.6799 N.am    1  UNL1       -0.2957
     14 C          63.5715   89.9236   15.5694 C.2     1  UNL1        0.2537
     15 O          63.4562   90.7838   16.7927 O.2     1  UNL1       -0.2699
     16 H          63.4832   87.8721   14.8770 H       1  UNL1        0.1501
     17 C          63.1282   87.8100   17.0138 C.3     1  UNL1        0.1318
     18 O          61.3021   85.9859   17.3103 O.co2   1  UNL1       -0.5474
     19 C          62.7377   86.3640   17.0962 C.2     1  UNL1        0.0702
     20 O          63.7829   85.2963   16.9644 O.co2   1  UNL1       -0.5474
     21 C          62.0334   91.1354   10.7563 C.3     1  UNL1        0.1355
     22 C          61.6998   89.8502   10.0584 C.ar    1  UNL1        0.0005
     23 C          62.6216   88.6726   10.1744 C.ar    1  UNL1       -0.0024
     24 C          62.2880   87.3875    9.4765 C.ar    1  UNL1        0.0036
     25 C          61.0326   87.2799    8.6626 C.ar    1  UNL1        0.0714
     26 C          60.1108   88.4575    8.5466 C.ar    1  UNL1        0.0036
     27 C          60.4444   89.7427    9.2445 C.ar    1  UNL1       -0.0024
     28 C          60.6990   85.9948    7.9648 C.3     1  UNL1        0.4186
     29 F          60.3654   84.7096    7.2669 F       1  UNL1       -0.1659
     30 F          62.1546   85.6339    7.9334 F       1  UNL1       -0.1659
     31 F          59.2434   86.3556    7.9961 F       1  UNL1       -0.1659
@<TRIPOS>UNITY_ATOM_ATTR
18 1
charge -1
@<TRIPOS>BOND
     1    18    19   ar
     2    19    20   ar
     3    19    17    1
     4    17    13    1
     5    13    14   am
     6    14    15    2
     7    14     1    1
     8     1     2   ar
     9     2     3    1
    10     2     4   ar
    11     4     5   ar
    12     5     6   ar
    13     6    21    1
    14    21    22    1
    15    22    23   ar
    16    23    24   ar
    17    24    25   ar
    18    25    28    1
    19    28    29    1
    20    28    30    1
    21    28    31    1
    22    25    26   ar
    23    26    27   ar
    24     6     7   ar
    25     7     8    2
    26     5     9    1
    27     9    10    1
    28    10    11    1
    29     7     1   ar
    30    11     4    1
    31    27    22   ar
    32    13    16    1
    33     3    12    1
@<TRIPOS>MOLECULE
*****
 31 33 0 0 0
SMALL
GASTEIGER

@<TRIPOS>ATOM
      1 C          60.3838   87.9967    8.9676 C.ar    1  UNL1        0.1427
      2 C          60.9063   86.5927    9.0445 C.ar    1  UNL1        0.1421
      3 O          60.5419   85.5976    7.9829 O.3     1  UNL1       -0.5054
      4 C          61.7934   86.1840   10.1830 C.ar    1  UNL1        0.0555
      5 C          62.1578   87.1791   11.2445 C.ar    1  UNL1        0.0712
      6 N          61.6352   88.5830   11.1676 N.ar    1  UNL1       -0.2925
      7 C          60.7482   88.9918   10.0291 C.ar    1  UNL1        0.2683
      8 O          60.2256   90.3957    9.9521 O.2     1  UNL1       -0.2667
      9 C          63.0444   86.4913   12.2399 C.3     1  UNL1        0.1859
     10 O          63.2280   85.0711   11.7935 O.3     1  UNL1       -0.3425
     11 C          62.4548   84.8811   10.5223 C.3     1  UNL1        0.1733
     12 H          59.9878   85.8530    7.2718 H       1  UNL1        0.2922
     13 N          59.7408   89.7025    7.1165 N.am    1  UNL1       -0.2957
     14 C          59.4967   88.4054    7.8291 C.2     1  UNL1        0.2537
     15 O          58.3657   87.5170    7.4032 O.2     1  UNL1       -0.2699
     16 H          60.4832   90.2856    7.3960 H       1  UNL1        0.1501
     17 C          58.8538   90.1113    5.9780 C.3     1  UNL1        0.1318
     18 O          60.6837   91.4528    4.7123 O.co2   1  UNL1       -0.5474
     19 C          59.2466   91.2593    5.0960 C.2     1  UNL1        0.0702
     20 O          58.2022   92.2137    4.5977 O.co2   1  UNL1       -0.5474
     21 C          61.9996   89.5783   12.2291 C.3     1  UNL1        0.1355
     22 C          63.0722   90.5940   11.9684 C.ar    1  UNL1        0.0005
     23 C          63.2856   91.1198   10.5799 C.ar    1  UNL1       -0.0024
     24 C          64.3581   92.1355   10.3192 C.ar    1  UNL1        0.0036
     25 C          65.2173   92.6254   11.4469 C.ar    1  UNL1        0.0714
     26 C          65.0039   92.0995   12.8354 C.ar    1  UNL1        0.0036
     27 C          63.9313   91.0838   13.0962 C.ar    1  UNL1       -0.0024
     28 C          66.2898   93.6411   11.1862 C.3     1  UNL1        0.4186
     29 F          67.3624   94.6568   10.9255 F       1  UNL1       -0.1659
     30 F          66.1961   94.1054   12.6094 F       1  UNL1       -0.1659
     31 F          66.3835   93.1767    9.7630 F       1  UNL1       -0.1659
@<TRIPOS>UNITY_ATOM_ATTR
18 1
charge -1
@<TRIPOS>BOND
     1    18    19   ar
     2    19    20   ar
     3    19    17    1
     4    17    13    1
     5    13    14   am
     6    14    15    2
     7    14     1    1
     8     1     2   ar
     9     2     3    1
    10     2     4   ar
    11     4     5   ar
    12     5     6   ar
    13     6    21    1
    14    21    22    1
    15    22    23   ar
    16    23    24   ar
    17    24    25   ar
    18    25    28    1
    19    28    29    1
    20    28    30    1
    21    28    31    1
    22    25    26   ar
    23    26    27   ar
    24     6     7   ar
    25     7     8    2
    26     5     9    1
    27     9    10    1
    28    10    11    1
    29     7     1   ar
    30    11     4    1
    31    27    22   ar
    32    13    16    1
    33     3    12    1
@<TRIPOS>MOLECULE
*****
 31 33 0 0 0
SMALL
GASTEIGER

@<TRIPOS>ATOM
      1 C          62.2829   85.8723   10.5625 C.ar    1  UNL1        0.1427
      2 C          61.4646   86.0418    9.3168 C.ar    1  UNL1        0.1421
      3 O          61.3000   84.8938    8.3655 O.3     1  UNL1       -0.5054
      4 C          60.8110   87.3595    9.0224 C.ar    1  UNL1        0.0555
      5 C          60.9757   88.5075    9.9736 C.ar    1  UNL1        0.0712
      6 N          61.7939   88.3379   11.2193 N.ar    1  UNL1       -0.2925
      7 C          62.4475   87.0203   11.5137 C.ar    1  UNL1        0.2683
      8 O          63.2658   86.8507   12.7594 O.2     1  UNL1       -0.2667
      9 C          60.2184   89.6789    9.4220 C.3     1  UNL1        0.1859
     10 O          59.5857   89.2548    8.1298 O.3     1  UNL1       -0.3425
     11 C          59.9520   87.8213    7.8828 C.3     1  UNL1        0.1733
     12 H          61.7083   84.0707    8.5495 H       1  UNL1        0.2922
     13 N          62.7901   83.9313   12.2133 N.am    1  UNL1       -0.2957
     14 C          62.9365   84.5546   10.8568 C.2     1  UNL1        0.2537
     15 O          63.7364   83.8603    9.7948 O.2     1  UNL1       -0.2699
     16 H          62.2650   84.3870   12.9104 H       1  UNL1        0.1501
     17 C          63.4436   82.6137   12.5077 C.3     1  UNL1        0.1318
     18 O          63.1729   80.6145   14.1448 O.co2   1  UNL1       -0.5474
     19 C          63.4408   82.0709   13.9061 C.2     1  UNL1        0.0702
     20 O          63.7059   82.9847   15.0658 O.co2   1  UNL1       -0.5474
     21 C          61.9586   89.4860   12.1706 C.3     1  UNL1        0.1355
     22 C          63.0267   90.5115   11.9307 C.ar    1  UNL1        0.0005
     23 C          63.8976   90.9665   13.0640 C.ar    1  UNL1       -0.0024
     24 C          64.9657   91.9920   12.8241 C.ar    1  UNL1        0.0036
     25 C          65.1628   92.5624   11.4508 C.ar    1  UNL1        0.0714
     26 C          64.2919   92.1073   10.3175 C.ar    1  UNL1        0.0036
     27 C          63.2238   91.0819   10.5575 C.ar    1  UNL1       -0.0024
     28 C          66.2309   93.5879   11.2109 C.3     1  UNL1        0.4186
     29 F          67.2990   94.6134   10.9709 F       1  UNL1       -0.1659
     30 F          66.1233   94.0341   12.6389 F       1  UNL1       -0.1659
     31 F          66.3384   93.1418    9.7828 F       1  UNL1       -0.1659
@<TRIPOS>UNITY_ATOM_ATTR
18 1
charge -1
@<TRIPOS>BOND
     1    18    19   ar
     2    19    20   ar
     3    19    17    1
     4    17    13    1
     5    13    14   am
     6    14    15    2
     7    14     1    1
     8     1     2   ar
     9     2     3    1
    10     2     4   ar
    11     4     5   ar
    12     5     6   ar
    13     6    21    1
    14    21    22    1
    15    22    23   ar
    16    23    24   ar
    17    24    25   ar
    18    25    28    1
    19    28    29    1
    20    28    30    1
    21    28    31    1
    22    25    26   ar
    23    26    27   ar
    24     6     7   ar
    25     7     8    2
    26     5     9    1
    27     9    10    1
    28    10    11    1
    29     7     1   ar
    30    11     4    1
    31    27    22   ar
    32    13    16    1
    33     3    12    1
@<TRIPOS>MOLECULE
*****
 31 33 0 0 0
SMALL
GASTEIGER

@<TRIPOS>ATOM
      1 C          65.1059   91.9214   11.7806 C.ar    1  UNL1        0.1427
      2 C          65.3875   91.5041   13.1937 C.ar    1  UNL1        0.1421
      3 O          66.7046   91.8417   13.8271 O.3     1  UNL1       -0.5054
      4 C          64.3519   90.7494   13.9733 C.ar    1  UNL1        0.0555
      5 C          63.0347   90.4118   13.3399 C.ar    1  UNL1        0.0712
      6 N          62.7532   90.8291   11.9268 N.ar    1  UNL1       -0.2925
      7 C          63.7889   91.5839   11.1473 C.ar    1  UNL1        0.2683
      8 O          63.5073   92.0012    9.7341 O.2     1  UNL1       -0.2667
      9 C          62.2136   89.6640   14.3480 C.3     1  UNL1        0.1859
     10 O          63.0233   89.5393   15.6046 O.3     1  UNL1       -0.3425
     11 C          64.3448   90.2101   15.3730 C.3     1  UNL1        0.1733
     12 H          67.3515   92.3132   13.3401 H       1  UNL1        0.2922
     13 N          65.7235   93.7593   10.0513 N.am    1  UNL1       -0.2957
     14 C          66.1417   92.6762   11.0011 C.2     1  UNL1        0.2537
     15 O          67.5953   92.3479   11.1712 O.2     1  UNL1       -0.2699
     16 H          64.7694   93.9748    9.9396 H       1  UNL1        0.1501
     17 C          66.7592   94.5141    9.2717 C.3     1  UNL1        0.1318
     18 O          67.5392   96.8553    8.4591 O.co2   1  UNL1       -0.5474
     19 C          66.9810   95.9738    9.5367 C.2     1  UNL1        0.0702
     20 O          66.6446   96.5519   10.8793 O.co2   1  UNL1       -0.5474
     21 C          61.4360   90.4916   11.2933 C.3     1  UNL1        0.1355
     22 C          61.3271   89.3130   10.3720 C.ar    1  UNL1        0.0005
     23 C          60.2087   89.2412    9.3750 C.ar    1  UNL1       -0.0024
     24 C          60.0998   88.0625    8.4537 C.ar    1  UNL1        0.0036
     25 C          61.1093   86.9557    8.5292 C.ar    1  UNL1        0.0714
     26 C          62.2278   87.0275    9.5262 C.ar    1  UNL1        0.0036
     27 C          62.3367   88.2061   10.4475 C.ar    1  UNL1       -0.0024
     28 C          61.0004   85.7771    7.6078 C.3     1  UNL1        0.4186
     29 F          60.8915   84.5984    6.6865 F       1  UNL1       -0.1659
     30 F          62.4734   85.5310    7.7485 F       1  UNL1       -0.1659
     31 F          59.5274   86.0231    7.4672 F       1  UNL1       -0.1659
@<TRIPOS>UNITY_ATOM_ATTR
18 1
charge -1
@<TRIPOS>BOND
     1    18    19   ar
     2    19    20   ar
     3    19    17    1
     4    17    13    1
     5    13    14   am
     6    14    15    2
     7    14     1    1
     8     1     2   ar
     9     2     3    1
    10     2     4   ar
    11     4     5   ar
    12     5     6   ar
    13     6    21    1
    14    21    22    1
    15    22    23   ar
    16    23    24   ar
    17    24    25   ar
    18    25    28    1
    19    28    29    1
    20    28    30    1
    21    28    31    1
    22    25    26   ar
    23    26    27   ar
    24     6     7   ar
    25     7     8    2
    26     5     9    1
    27     9    10    1
    28    10    11    1
    29     7     1   ar
    30    11     4    1
    31    27    22   ar
    32    13    16    1
    33     3    12    1
@<TRIPOS>MOLECULE
*****
 31 33 0 0 0
SMALL
GASTEIGER

@<TRIPOS>ATOM
      1 C          63.5848   89.0837   12.9559 C.ar    1  UNL1        0.1427
      2 C          62.7700   89.0658   11.6967 C.ar    1  UNL1        0.1421
      3 O          62.4467   90.3511   10.9941 O.3     1  UNL1       -0.5054
      4 C          62.2783   87.7626   11.1400 C.ar    1  UNL1        0.0555
      5 C          62.6016   86.4773   11.8425 C.ar    1  UNL1        0.0712
      6 N          63.4164   86.4952   13.1017 N.ar    1  UNL1       -0.2925
      7 C          63.9081   87.7985   13.6584 C.ar    1  UNL1        0.2683
      8 O          64.7230   87.8165   14.9176 O.2     1  UNL1       -0.2667
      9 C          61.9841   85.3547   11.0625 C.3     1  UNL1        0.1859
     10 O          61.2792   85.9462    9.8779 O.3     1  UNL1       -0.3425
     11 C          61.4610   87.4343    9.9258 C.3     1  UNL1        0.1733
     12 H          62.7538   91.1652   11.3419 H       1  UNL1        0.2922
     13 N          65.3872   90.4452   14.2396 N.am    1  UNL1       -0.2957
     14 C          64.0765   90.3870   13.5125 C.2     1  UNL1        0.2537
     15 O          63.2574   91.6320   13.3421 O.2     1  UNL1       -0.2699
     16 H          65.9248   89.6281   14.3514 H       1  UNL1        0.1501
     17 C          65.8789   91.7484   14.7962 C.3     1  UNL1        0.1318
     18 O          67.9976   92.2192   13.3681 O.co2   1  UNL1       -0.5474
     19 C          66.6860   92.6748   13.9356 C.2     1  UNL1        0.0702
     20 O          66.1814   94.0567   13.6427 O.co2   1  UNL1       -0.5474
     21 C          63.7398   85.2099   13.8043 C.3     1  UNL1        0.1355
     22 C          63.5051   83.8987   13.1147 C.ar    1  UNL1        0.0005
     23 C          64.3544   83.5052   11.9426 C.ar    1  UNL1       -0.0024
     24 C          64.1197   82.1940   11.2530 C.ar    1  UNL1        0.0036
     25 C          63.0357   81.2762   11.7355 C.ar    1  UNL1        0.0714
     26 C          62.1864   81.6697   12.9076 C.ar    1  UNL1        0.0036
     27 C          62.4211   82.9810   13.5972 C.ar    1  UNL1       -0.0024
     28 C          62.8010   79.9650   11.0459 C.3     1  UNL1        0.4186
     29 F          62.5664   78.6538   10.3563 F       1  UNL1       -0.1659
     30 F          63.1612   80.5918    9.7316 F       1  UNL1       -0.1659
     31 F          62.4409   79.3382   12.3602 F       1  UNL1       -0.1659
@<TRIPOS>UNITY_ATOM_ATTR
18 1
charge -1
@<TRIPOS>BOND
     1    18    19   ar
     2    19    20   ar
     3    19    17    1
     4    17    13    1
     5    13    14   am
     6    14    15    2
     7    14     1    1
     8     1     2   ar
     9     2     3    1
    10     2     4   ar
    11     4     5   ar
    12     5     6   ar
    13     6    21    1
    14    21    22    1
    15    22    23   ar
    16    23    24   ar
    17    24    25   ar
    18    25    28    1
    19    28    29    1
    20    28    30    1
    21    28    31    1
    22    25    26   ar
    23    26    27   ar
    24     6     7   ar
    25     7     8    2
    26     5     9    1
    27     9    10    1
    28    10    11    1
    29     7     1   ar
    30    11     4    1
    31    27    22   ar
    32    13    16    1
    33     3    12    1
@<TRIPOS>MOLECULE
*****
 31 33 0 0 0
SMALL
GASTEIGER

@<TRIPOS>ATOM
      1 C          63.5066   85.4277   13.4658 C.ar    1  UNL1        0.1427
      2 C          64.2181   86.4733   14.2724 C.ar    1  UNL1        0.1421
      3 O          65.0374   86.0729   15.4634 O.3     1  UNL1       -0.5054
      4 C          64.1102   87.9191   13.8881 C.ar    1  UNL1        0.0555
      5 C          63.2909   88.3195   12.6971 C.ar    1  UNL1        0.0712
      6 N          62.5794   87.2739   11.8905 N.ar    1  UNL1       -0.2925
      7 C          62.6874   85.8280   12.2749 C.ar    1  UNL1        0.2683
      8 O          61.9759   84.7823   11.4683 O.2     1  UNL1       -0.2667
      9 C          63.3691   89.8112   12.5608 C.3     1  UNL1        0.1859
     10 O          64.2368   90.3328   13.6677 O.3     1  UNL1       -0.3425
     11 C          64.6948   89.1635   14.4879 C.3     1  UNL1        0.1733
     12 H          65.1048   85.1697   15.7035 H       1  UNL1        0.2922
     13 N          63.7997   82.9360   12.7910 N.am    1  UNL1       -0.2957
     14 C          63.6146   83.9818   13.8503 C.2     1  UNL1        0.2537
     15 O          63.5373   83.5817   15.2938 O.2     1  UNL1       -0.2699
     16 H          63.8504   83.1985   11.8436 H       1  UNL1        0.1501
     17 C          63.9076   81.4901   13.1754 C.3     1  UNL1        0.1318
     18 O          61.6044   81.0162   14.2801 O.co2   1  UNL1       -0.5474
     19 C          62.6701   80.6501   13.2902 C.2     1  UNL1        0.0702
     20 O          62.4985   79.4441   12.4149 O.co2   1  UNL1       -0.5474
     21 C          61.7601   87.6742   10.6994 C.3     1  UNL1        0.1355
     22 C          61.7537   86.8143    9.4704 C.ar    1  UNL1        0.0005
     23 C          63.0238   86.1704    8.9990 C.ar    1  UNL1       -0.0024
     24 C          63.0174   85.3105    7.7699 C.ar    1  UNL1        0.0036
     25 C          61.7410   85.0947    7.0122 C.ar    1  UNL1        0.0714
     26 C          60.4709   85.7386    7.4836 C.ar    1  UNL1        0.0036
     27 C          60.4773   86.5985    8.7126 C.ar    1  UNL1       -0.0024
     28 C          61.7346   84.2348    5.7832 C.3     1  UNL1        0.4186
     29 F          61.7283   83.3750    4.5541 F       1  UNL1       -0.1659
     30 F          63.1796   84.5612    5.5474 F       1  UNL1       -0.1659
     31 F          60.2897   83.9085    6.0189 F       1  UNL1       -0.1659
@<TRIPOS>UNITY_ATOM_ATTR
18 1
charge -1
@<TRIPOS>BOND
     1    18    19   ar
     2    19    20   ar
     3    19    17    1
     4    17    13    1
     5    13    14   am
     6    14    15    2
     7    14     1    1
     8     1     2   ar
     9     2     3    1
    10     2     4   ar
    11     4     5   ar
    12     5     6   ar
    13     6    21    1
    14    21    22    1
    15    22    23   ar
    16    23    24   ar
    17    24    25   ar
    18    25    28    1
    19    28    29    1
    20    28    30    1
    21    28    31    1
    22    25    26   ar
    23    26    27   ar
    24     6     7   ar
    25     7     8    2
    26     5     9    1
    27     9    10    1
    28    10    11    1
    29     7     1   ar
    30    11     4    1
    31    27    22   ar
    32    13    16    1
    33     3    12    1
@<TRIPOS>MOLECULE
*****
 31 33 0 0 0
SMALL
GASTEIGER

@<TRIPOS>ATOM
      1 C          62.9389   86.4576   12.3638 C.ar    1  UNL1        0.1427
      2 C          62.0283   86.3958   11.1735 C.ar    1  UNL1        0.1421
      3 O          61.6592   85.0687   10.5796 O.3     1  UNL1       -0.5054
      4 C          61.4868   87.6611   10.5769 C.ar    1  UNL1        0.0555
      5 C          61.8559   88.9881   11.1707 C.ar    1  UNL1        0.0712
      6 N          62.7666   89.0500   12.3611 N.ar    1  UNL1       -0.2925
      7 C          63.3080   87.7846   12.9576 C.ar    1  UNL1        0.2683
      8 O          64.2187   87.8464   14.1480 O.2     1  UNL1       -0.2667
      9 C          61.1727   90.0591   10.3731 C.3     1  UNL1        0.1859
     10 O          60.3813   89.3939    9.2863 O.3     1  UNL1       -0.3425
     11 C          60.5754   87.9118    9.4123 C.3     1  UNL1        0.1733
     12 H          61.9975   84.2783   10.9523 H       1  UNL1        0.2922
     13 N          63.8936   84.0594   12.0681 N.am    1  UNL1       -0.2957
     14 C          63.4804   85.1922   12.9603 C.2     1  UNL1        0.2537
     15 O          63.6087   85.0597   14.4488 O.2     1  UNL1       -0.2699
     16 H          63.8094   84.1464   11.0911 H       1  UNL1        0.1501
     17 C          64.4351   82.7941   12.6645 C.3     1  UNL1        0.1318
     18 O          63.1816   81.4765   14.5200 O.co2   1  UNL1       -0.5474
     19 C          63.4980   81.6952   13.0703 C.2     1  UNL1        0.0702
     20 O          62.8774   80.8152   12.0260 O.co2   1  UNL1       -0.5474
     21 C          63.1357   90.3770   12.9550 C.3     1  UNL1        0.1355
     22 C          64.1657   91.2378   12.2855 C.ar    1  UNL1        0.0005
     23 C          65.3911   91.6640   13.0384 C.ar    1  UNL1       -0.0024
     24 C          66.4211   92.5247   12.3689 C.ar    1  UNL1        0.0036
     25 C          66.2257   92.9592   10.9465 C.ar    1  UNL1        0.0714
     26 C          65.0004   92.5330   10.1937 C.ar    1  UNL1        0.0036
     27 C          63.9704   91.6723   10.8632 C.ar    1  UNL1       -0.0024
     28 C          67.2557   93.8200   10.2770 C.3     1  UNL1        0.4186
     29 F          68.2857   94.6807    9.6076 F       1  UNL1       -0.1659
     30 F          67.7546   92.6291    9.5135 F       1  UNL1       -0.1659
     31 F          66.7569   95.0108   11.0406 F       1  UNL1       -0.1659
@<TRIPOS>UNITY_ATOM_ATTR
18 1
charge -1
@<TRIPOS>BOND
     1    18    19   ar
     2    19    20   ar
     3    19    17    1
     4    17    13    1
     5    13    14   am
     6    14    15    2
     7    14     1    1
     8     1     2   ar
     9     2     3    1
    10     2     4   ar
    11     4     5   ar
    12     5     6   ar
    13     6    21    1
    14    21    22    1
    15    22    23   ar
    16    23    24   ar
    17    24    25   ar
    18    25    28    1
    19    28    29    1
    20    28    30    1
    21    28    31    1
    22    25    26   ar
    23    26    27   ar
    24     6     7   ar
    25     7     8    2
    26     5     9    1
    27     9    10    1
    28    10    11    1
    29     7     1   ar
    30    11     4    1
    31    27    22   ar
    32    13    16    1
    33     3    12    1
@<TRIPOS>MOLECULE
*****
 31 33 0 0 0
SMALL
GASTEIGER

@<TRIPOS>ATOM
      1 C          65.1734   91.6379   12.6515 C.ar    1  UNL1        0.1427
      2 C          64.4761   91.8403   11.3390 C.ar    1  UNL1        0.1421
      3 O          64.9122   92.9430   10.4202 O.3     1  UNL1       -0.5054
      4 C          63.3428   90.9401   10.9451 C.ar    1  UNL1        0.0555
      5 C          62.9067   89.8375   11.8639 C.ar    1  UNL1        0.0712
      6 N          63.6040   89.6351   13.1764 N.ar    1  UNL1       -0.2925
      7 C          64.7374   90.5354   13.5702 C.ar    1  UNL1        0.2683
      8 O          65.4347   90.3330   14.8829 O.2     1  UNL1       -0.2667
      9 C          61.7668   89.1135   11.2109 C.3     1  UNL1        0.1859
     10 O          61.4984   89.7687    9.8885 O.3     1  UNL1       -0.3425
     11 C          62.4724   90.8976    9.7243 C.3     1  UNL1        0.1733
     12 H          65.6202   93.5053   10.6662 H       1  UNL1        0.2922
     13 N          66.3558   93.1220   14.4262 N.am    1  UNL1       -0.2957
     14 C          66.3068   92.5383   13.0453 C.2     1  UNL1        0.2537
     15 O          67.3909   92.8548   12.0583 O.2     1  UNL1       -0.2699
     16 H          65.6442   92.9142   15.0740 H       1  UNL1        0.1501
     17 C          67.4891   94.0223   14.8200 C.3     1  UNL1        0.1318
     18 O          69.6871   94.4235   16.1459 O.co2   1  UNL1       -0.5474
     19 C          68.5360   93.5352   15.7776 C.2     1  UNL1        0.0702
     20 O          68.4316   92.1597   16.3669 O.co2   1  UNL1       -0.5474
     21 C          63.1680   88.5325   14.0953 C.3     1  UNL1        0.1355
     22 C          63.5002   87.1071   13.7667 C.ar    1  UNL1        0.0005
     23 C          62.8978   86.4564   12.5569 C.ar    1  UNL1       -0.0024
     24 C          63.2300   85.0310   12.2283 C.ar    1  UNL1        0.0036
     25 C          64.1645   84.2564   13.1096 C.ar    1  UNL1        0.0714
     26 C          64.7669   84.9071   14.3194 C.ar    1  UNL1        0.0036
     27 C          64.4347   86.3325   14.6480 C.ar    1  UNL1       -0.0024
     28 C          64.4967   82.8310   12.7810 C.3     1  UNL1        0.4186
     29 F          64.8289   81.4056   12.4525 F       1  UNL1       -0.1659
     30 F          64.9017   83.2444   11.3971 F       1  UNL1       -0.1659
     31 F          64.0918   82.4176   14.1649 F       1  UNL1       -0.1659
@<TRIPOS>UNITY_ATOM_ATTR
18 1
charge -1
@<TRIPOS>BOND
     1    18    19   ar
     2    19    20   ar
     3    19    17    1
     4    17    13    1
     5    13    14   am
     6    14    15    2
     7    14     1    1
     8     1     2   ar
     9     2     3    1
    10     2     4   ar
    11     4     5   ar
    12     5     6   ar
    13     6    21    1
    14    21    22    1
    15    22    23   ar
    16    23    24   ar
    17    24    25   ar
    18    25    28    1
    19    28    29    1
    20    28    30    1
    21    28    31    1
    22    25    26   ar
    23    26    27   ar
    24     6     7   ar
    25     7     8    2
    26     5     9    1
    27     9    10    1
    28    10    11    1
    29     7     1   ar
    30    11     4    1
    31    27    22   ar
    32    13    16    1
    33     3    12    1
@<TRIPOS>MOLECULE
*****
 31 33 0 0 0
SMALL
GASTEIGER

@<TRIPOS>ATOM
      1 C          63.6238   90.4648   11.7212 C.ar    1  UNL1        0.1427
      2 C          62.7403   90.5721   10.5138 C.ar    1  UNL1        0.1421
      3 O          62.7877   91.8022    9.6568 O.3     1  UNL1       -0.5054
      4 C          61.8094   89.4493   10.1635 C.ar    1  UNL1        0.0555
      5 C          61.7621   88.2192   11.0205 C.ar    1  UNL1        0.0712
      6 N          62.6456   88.1118   12.2279 N.ar    1  UNL1       -0.2925
      7 C          63.5765   89.2347   12.5783 C.ar    1  UNL1        0.2683
      8 O          64.4600   89.1274   13.7858 O.2     1  UNL1       -0.2667
      9 C          60.7511   87.2814   10.4300 C.3     1  UNL1        0.1859
     10 O          60.1738   87.9320    9.2080 O.3     1  UNL1       -0.3425
     11 C          60.8278   89.2718    9.0433 C.3     1  UNL1        0.1733
     12 H          63.3692   92.5036    9.8756 H       1  UNL1        0.2922
     13 N          65.4206   92.2022   11.0120 N.am    1  UNL1       -0.2957
     14 C          64.5547   91.5876   12.0716 C.2     1  UNL1        0.2537
     15 O          64.6197   92.0959   13.4812 O.2     1  UNL1       -0.2699
     16 H          65.3779   91.8686   10.0868 H       1  UNL1        0.1501
     17 C          66.3515   93.3250   11.3623 C.3     1  UNL1        0.1318
     18 O          66.7809   94.5691    9.1222 O.co2   1  UNL1       -0.5474
     19 C          66.3385   94.5895   10.5553 C.2     1  UNL1        0.0702
     20 O          65.8831   95.8741   11.1816 O.co2   1  UNL1       -0.5474
     21 C          62.5982   86.8817   13.0851 C.3     1  UNL1        0.1355
     22 C          62.7889   85.5287   12.4662 C.ar    1  UNL1        0.0005
     23 C          63.0360   85.4065   10.9918 C.ar    1  UNL1       -0.0024
     24 C          63.2266   84.0534   10.3729 C.ar    1  UNL1        0.0036
     25 C          63.1701   82.8227   11.2285 C.ar    1  UNL1        0.0714
     26 C          62.9230   82.9449   12.7030 C.ar    1  UNL1        0.0036
     27 C          62.7323   84.2979   13.3218 C.ar    1  UNL1       -0.0024
     28 C          63.3607   81.4696   10.6097 C.3     1  UNL1        0.4186
     29 F          63.5513   80.1166    9.9908 F       1  UNL1       -0.1659
     30 F          62.3312   80.8993   11.5396 F       1  UNL1       -0.1659
     31 F          64.3902   82.0400    9.6797 F       1  UNL1       -0.1659
@<TRIPOS>UNITY_ATOM_ATTR
18 1
charge -1
@<TRIPOS>BOND
     1    18    19   ar
     2    19    20   ar
     3    19    17    1
     4    17    13    1
     5    13    14   am
     6    14    15    2
     7    14     1    1
     8     1     2   ar
     9     2     3    1
    10     2     4   ar
    11     4     5   ar
    12     5     6   ar
    13     6    21    1
    14    21    22    1
    15    22    23   ar
    16    23    24   ar
    17    24    25   ar
    18    25    28    1
    19    28    29    1
    20    28    30    1
    21    28    31    1
    22    25    26   ar
    23    26    27   ar
    24     6     7   ar
    25     7     8    2
    26     5     9    1
    27     9    10    1
    28    10    11    1
    29     7     1   ar
    30    11     4    1
    31    27    22   ar
    32    13    16    1
    33     3    12    1
