@<TRIPOS>MOLECULE
*****
 43 45 0 0 0
SMALL
GASTEIGER

@<TRIPOS>ATOM
      1 C          61.9215   88.6023   10.8413 C.ar    1  UNL1        0.0539
      2 S          61.1898   89.2645    9.7117 S.2     1  UNL1       -0.0619
      3 C          60.3955   88.2135    8.9945 C.ar    1  UNL1        0.1641
      4 N          60.6362   86.9017    9.6809 N.ar    1  UNL1       -0.2291
      5 C          61.5793   87.1420   10.8223 C.ar    1  UNL1        0.1414
      6 C          62.0905   86.1041   11.7771 C.2     1  UNL1        0.2672
      7 O          61.7897   86.2198   13.2422 O.2     1  UNL1       -0.2682
      8 N          62.9023   84.9507   11.2670 N.am    1  UNL1       -0.2765
      9 C          63.4135   83.9128   12.2217 C.3     1  UNL1        0.0937
     10 C          64.2253   82.7593   11.7115 C.3     1  UNL1        0.0216
     11 C          64.5260   82.6436   10.2466 C.3     1  UNL1        0.0035
     12 C          64.0149   83.6814    9.2917 C.3     1  UNL1        0.0199
     13 C          63.2030   84.8349    9.8019 C.3     1  UNL1        0.0757
     14 C          62.6919   85.8728    8.8472 C.3     1  UNL1        0.0215
     15 C          64.6617   90.6390   13.7727 C.ar    1  UNL1        0.1333
     16 C          64.0616   89.3059   14.1085 C.ar    1  UNL1        0.0208
     17 C          63.1482   88.6270   13.1314 C.ar    1  UNL1        0.0028
     18 C          62.8349   89.2812   11.8185 C.ar    1  UNL1        0.0191
     19 C          63.4350   90.6142   11.4827 C.ar    1  UNL1        0.0700
     20 CL         63.1216   91.2685   10.1697 Cl      1  UNL1       -0.0813
     21 C          64.3484   91.2931   12.4598 C.ar    1  UNL1        0.0867
     22 CL         64.9485   92.6263   12.1239 Cl      1  UNL1       -0.0800
     23 S          65.5751   91.3179   14.7498 S.O2    1  UNL1        0.0613
     24 O          64.3863   91.7887   15.5341 O.2     1  UNL1       -0.1530
     25 O          66.7640   90.8471   13.9656 O.2     1  UNL1       -0.1530
     26 N          66.4886   91.9968   15.7269 N.3     1  UNL1       -0.1723
     27 H          65.9050   92.3249   16.4965 H       1  UNL1        0.1491
     28 C          66.8163   94.0880   14.2204 C.3     1  UNL1        0.0278
     29 C          67.3225   93.1637   15.2879 C.3     1  UNL1        0.1701
     30 C          68.6627   93.4064   15.9164 C.3     1  UNL1        0.4118
     31 F          70.0029   93.6490   16.5448 F       1  UNL1       -0.1685
     32 F          68.8606   91.9270   16.0657 F       1  UNL1       -0.1685
     33 F          68.4649   94.8857   15.7670 F       1  UNL1       -0.1685
     34 C          59.5150   88.4353    7.8005 C.2     1  UNL1        0.2699
     35 O          58.5162   87.3901    7.4005 O.2     1  UNL1       -0.2679
     36 N          59.6334   89.7024    7.0065 N.am    1  UNL1       -0.2969
     37 H          60.2889   90.3884    7.2690 H       1  UNL1        0.1499
     38 C          58.7529   89.9243    5.8125 C.3     1  UNL1        0.1166
     39 C          58.8278   91.2171    5.0553 C.3     1  UNL1        0.1064
     40 C          57.3309   91.3123    5.0698 C.3     1  UNL1        0.0311
     41 C          60.3248   91.1218    5.0409 C.3     1  UNL1        0.0311
     42 O          58.9028   92.5098    4.2982 O.3     1  UNL1       -0.3851
     43 H          58.0063   92.8465    4.1438 H       1  UNL1        0.2103
@<TRIPOS>BOND
     1    29    28    1
     2    29    26    1
     3    26    23    1
     4    23    24    2
     5    23    25    2
     6    23    15    1
     7    15    16   ar
     8    16    17   ar
     9    17    18   ar
    10    18     1    1
    11     1     2   ar
    12     2     3   ar
    13     3    34    1
    14    34    35    2
    15    34    36   am
    16    36    38    1
    17    38    39    1
    18    39    40    1
    19    39    41    1
    20    39    42    1
    21     3     4   ar
    22     4     5   ar
    23     5     6    1
    24     6     7    2
    25     6     8   am
    26     8     9    1
    27     9    10    1
    28    10    11    1
    29    11    12    1
    30    12    13    1
    31    13    14    1
    32    18    19   ar
    33    19    20    1
    34    19    21   ar
    35    21    22    1
    36    29    30    1
    37    30    31    1
    38    30    32    1
    39    30    33    1
    40    21    15   ar
    41     5     1   ar
    42    13     8    1
    43    26    27    1
    44    36    37    1
    45    42    43    1
@<TRIPOS>MOLECULE
*****
 43 45 0 0 0
SMALL
GASTEIGER

@<TRIPOS>ATOM
      1 C          63.4609   89.1868   12.8232 C.ar    1  UNL1        0.0539
      2 S          64.6568   90.0812   12.9641 S.2     1  UNL1       -0.0619
      3 C          64.2482   91.4680   12.5643 C.ar    1  UNL1        0.1641
      4 N          62.7997   91.4307   12.1762 N.ar    1  UNL1       -0.2291
      5 C          62.3132   90.0208   12.3363 C.ar    1  UNL1        0.1414
      6 C          60.9230   89.5310   12.0581 C.2     1  UNL1        0.2672
      7 O          59.8731   89.6070   13.1269 O.2     1  UNL1       -0.2682
      8 N          60.5825   88.9651   10.7114 N.am    1  UNL1       -0.2765
      9 C          59.1923   88.4753   10.4333 C.3     1  UNL1        0.0937
     10 C          58.8518   87.9095    9.0865 C.3     1  UNL1        0.0216
     11 C          59.9015   87.8334    8.0177 C.3     1  UNL1        0.0035
     12 C          61.2918   88.3233    8.2958 C.3     1  UNL1        0.0199
     13 C          61.6322   88.8891    9.6426 C.3     1  UNL1        0.0757
     14 C          63.0225   89.3789    9.9207 C.3     1  UNL1        0.0215
     15 C          63.3381   84.7760   13.7063 C.ar    1  UNL1        0.1333
     16 C          62.9063   85.2842   12.3627 C.ar    1  UNL1        0.0208
     17 C          62.9473   86.7545   12.0683 C.ar    1  UNL1        0.0028
     18 C          63.4200   87.7165   13.1176 C.ar    1  UNL1        0.0191
     19 C          63.8517   87.2083   14.4612 C.ar    1  UNL1        0.0700
     20 CL         64.3245   88.1704   15.5105 Cl      1  UNL1       -0.0813
     21 C          63.8108   85.7381   14.7555 C.ar    1  UNL1        0.0867
     22 CL         64.2426   85.2299   16.0992 Cl      1  UNL1       -0.0800
     23 S          63.2971   83.3057   14.0006 S.O2    1  UNL1        0.0613
     24 O          64.5978   83.1244   13.2758 O.2     1  UNL1       -0.1530
     25 O          61.9965   83.4871   14.7255 O.2     1  UNL1       -0.1530
     26 N          63.2562   81.8355   14.2950 N.3     1  UNL1       -0.1723
     27 H          64.1760   81.4624   14.0601 H       1  UNL1        0.1491
     28 C          60.9126   80.7150   14.2505 C.3     1  UNL1        0.0278
     29 C          62.2470   80.9615   13.6112 C.3     1  UNL1        0.1701
     30 C          62.5721   80.3341   12.2881 C.3     1  UNL1        0.4118
     31 F          62.8972   79.7066   10.9650 F       1  UNL1       -0.1685
     32 F          62.7226   79.0002   12.9576 F       1  UNL1       -0.1685
     33 F          62.4216   81.6679   11.6186 F       1  UNL1       -0.1685
     34 C          65.1327   92.6794   12.5542 C.2     1  UNL1        0.2699
     35 O          65.7833   93.1436   13.8236 O.2     1  UNL1       -0.2679
     36 N          65.3666   93.4267   11.2748 N.am    1  UNL1       -0.2969
     37 H          64.9396   93.1220   10.4417 H       1  UNL1        0.1499
     38 C          66.2511   94.6381   11.2648 C.3     1  UNL1        0.1166
     39 C          67.0539   94.9704   10.0419 C.3     1  UNL1        0.1064
     40 C          66.8124   96.4315   10.2806 C.3     1  UNL1        0.0311
     41 C          67.2952   93.5093    9.8033 C.3     1  UNL1        0.0311
     42 O          67.8565   95.3028    8.8191 O.3     1  UNL1       -0.3851
     43 H          67.8824   96.2652    8.7010 H       1  UNL1        0.2103
@<TRIPOS>BOND
     1    29    28    1
     2    29    26    1
     3    26    23    1
     4    23    24    2
     5    23    25    2
     6    23    15    1
     7    15    16   ar
     8    16    17   ar
     9    17    18   ar
    10    18     1    1
    11     1     2   ar
    12     2     3   ar
    13     3    34    1
    14    34    35    2
    15    34    36   am
    16    36    38    1
    17    38    39    1
    18    39    40    1
    19    39    41    1
    20    39    42    1
    21     3     4   ar
    22     4     5   ar
    23     5     6    1
    24     6     7    2
    25     6     8   am
    26     8     9    1
    27     9    10    1
    28    10    11    1
    29    11    12    1
    30    12    13    1
    31    13    14    1
    32    18    19   ar
    33    19    20    1
    34    19    21   ar
    35    21    22    1
    36    29    30    1
    37    30    31    1
    38    30    32    1
    39    30    33    1
    40    21    15   ar
    41     5     1   ar
    42    13     8    1
    43    26    27    1
    44    36    37    1
    45    42    43    1
@<TRIPOS>MOLECULE
*****
 43 45 0 0 0
SMALL
GASTEIGER

@<TRIPOS>ATOM
      1 C          63.0638   88.5261   12.1445 C.ar    1  UNL1        0.0539
      2 S          63.5318   87.3606   12.9646 S.2     1  UNL1       -0.0619
      3 C          62.4992   86.2774   12.8622 C.ar    1  UNL1        0.1641
      4 N          61.3931   86.7734   11.9788 N.ar    1  UNL1       -0.2291
      5 C          61.7420   88.1632   11.5352 C.ar    1  UNL1        0.1414
      6 C          60.9144   89.0367   10.6397 C.2     1  UNL1        0.2672
      7 O          60.5880   90.4408   11.0546 O.2     1  UNL1       -0.2682
      8 N          60.4132   88.5062    9.3292 N.am    1  UNL1       -0.2765
      9 C          59.5856   89.3797    8.4337 C.3     1  UNL1        0.0937
     10 C          59.0844   88.8492    7.1232 C.3     1  UNL1        0.0216
     11 C          59.4107   87.4452    6.7083 C.3     1  UNL1        0.0035
     12 C          60.2383   86.5716    7.6038 C.3     1  UNL1        0.0199
     13 C          60.7395   87.1021    8.9143 C.3     1  UNL1        0.0757
     14 C          61.5671   86.2286    9.8099 C.3     1  UNL1        0.0215
     15 C          65.2426   92.4266   11.6064 C.ar    1  UNL1        0.1333
     16 C          64.5668   91.7772   10.4353 C.ar    1  UNL1        0.0208
     17 C          63.8406   90.4770   10.6146 C.ar    1  UNL1        0.0028
     18 C          63.7900   89.8263   11.9651 C.ar    1  UNL1        0.0191
     19 C          64.4658   90.4757   13.1363 C.ar    1  UNL1        0.0700
     20 CL         64.4152   89.8249   14.4869 Cl      1  UNL1       -0.0813
     21 C          65.1920   91.7758   12.9569 C.ar    1  UNL1        0.0867
     22 CL         65.8678   92.4252   14.1282 Cl      1  UNL1       -0.0800
     23 S          65.9688   93.7267   11.4271 S.O2    1  UNL1        0.0613
     24 O          67.1350   93.1815   12.1971 O.2     1  UNL1       -0.1530
     25 O          64.8027   94.2719   10.6571 O.2     1  UNL1       -0.1530
     26 N          66.6951   95.0269   11.2477 N.3     1  UNL1       -0.1723
     27 H          66.0507   95.7655   11.5299 H       1  UNL1        0.1491
     28 C          67.2996   96.8537    9.5021 C.3     1  UNL1        0.0278
     29 C          67.2272   95.4087    9.8983 C.3     1  UNL1        0.1701
     30 C          67.6870   94.3457    8.9451 C.3     1  UNL1        0.4118
     31 F          68.1468   93.2827    7.9919 F       1  UNL1       -0.1685
     32 F          66.5616   94.6922    8.0159 F       1  UNL1       -0.1685
     33 F          68.8124   93.9993    9.8743 F       1  UNL1       -0.1685
     34 C          62.5619   84.9340   13.5265 C.2     1  UNL1        0.2699
     35 O          62.3089   84.8135   15.0002 O.2     1  UNL1       -0.2679
     36 N          62.8775   83.7111   12.7173 N.am    1  UNL1       -0.2969
     37 H          63.0435   83.7902   11.7501 H       1  UNL1        0.1499
     38 C          62.9402   82.3677   13.3816 C.3     1  UNL1        0.1166
     39 C          62.8157   81.1184   12.5606 C.3     1  UNL1        0.1064
     40 C          63.2590   81.8744   11.3432 C.3     1  UNL1        0.0311
     41 C          62.3723   80.3625   13.7781 C.3     1  UNL1        0.0311
     42 O          62.6912   79.8692   11.7396 O.3     1  UNL1       -0.3851
     43 H          62.9346   80.0608   10.8204 H       1  UNL1        0.2103
@<TRIPOS>BOND
     1    29    28    1
     2    29    26    1
     3    26    23    1
     4    23    24    2
     5    23    25    2
     6    23    15    1
     7    15    16   ar
     8    16    17   ar
     9    17    18   ar
    10    18     1    1
    11     1     2   ar
    12     2     3   ar
    13     3    34    1
    14    34    35    2
    15    34    36   am
    16    36    38    1
    17    38    39    1
    18    39    40    1
    19    39    41    1
    20    39    42    1
    21     3     4   ar
    22     4     5   ar
    23     5     6    1
    24     6     7    2
    25     6     8   am
    26     8     9    1
    27     9    10    1
    28    10    11    1
    29    11    12    1
    30    12    13    1
    31    13    14    1
    32    18    19   ar
    33    19    20    1
    34    19    21   ar
    35    21    22    1
    36    29    30    1
    37    30    31    1
    38    30    32    1
    39    30    33    1
    40    21    15   ar
    41     5     1   ar
    42    13     8    1
    43    26    27    1
    44    36    37    1
    45    42    43    1
