@<TRIPOS>MOLECULE
*****
 39 44 0 0 0
SMALL
GASTEIGER

@<TRIPOS>ATOM
      1 C          66.6854   94.0635   11.0570 C.ar    1  UNL1        0.2400
      2 N          67.5767   95.0986   10.4372 N.ar    1  UNL1       -0.2090
      3 C          67.3627   95.5167    9.0127 C.ar    1  UNL1        0.1021
      4 C          66.3502   95.0991    7.9275 C.ar    1  UNL1        0.0221
      5 C          66.1570   94.3799    9.2296 C.ar    1  UNL1        0.0222
      6 C          65.5800   93.4466   10.2522 C.ar    1  UNL1        0.1178
      7 N          64.6887   92.4115   10.8721 N.pl3   1  UNL1       -0.2104
      8 S          63.5906   91.3996   11.0142 S.O2    1  UNL1        0.0737
      9 O          63.1359   90.5261   12.1457 O.2     1  UNL1       -0.1499
     10 O          64.4028   91.5743   12.2631 O.2     1  UNL1       -0.1499
     11 C          62.4181   90.5329   10.6617 C.ar    1  UNL1        0.1253
     12 C          61.8411   89.5995   11.6843 C.ar    1  UNL1        0.0202
     13 C          60.6687   88.7328   11.3317 C.ar    1  UNL1        0.0015
     14 C          60.0733   88.7995    9.9566 C.ar    1  UNL1        0.0046
     15 C          60.6504   89.7329    8.9340 C.ar    1  UNL1        0.0547
     16 C          61.8227   90.5996    9.2865 C.ar    1  UNL1        0.0247
     17 C          59.8125   89.6899    7.3218 C.2     1  UNL1        0.2461
     18 O          58.7144   88.6780    7.4640 O.2     1  UNL1       -0.2701
     19 N          59.5986   90.1081    5.8973 N.am    1  UNL1       -0.2969
     20 C          59.7917   90.8272    4.5952 C.3     1  UNL1        0.1181
     21 C          60.3688   91.7607    3.5726 C.ar    1  UNL1        0.0167
     22 C          60.0133   92.0743    2.1055 C.ar    1  UNL1        0.0962
     23 N          60.5904   93.0077    1.0829 N.ar    1  UNL1       -0.2425
     24 C          61.7628   93.8744    1.4354 C.ar    1  UNL1        0.1003
     25 C          62.3582   93.8077    2.8106 C.ar    1  UNL1        0.0366
     26 C          61.2601   92.7958    2.9527 C.ar    1  UNL1        0.0020
     27 C          63.5306   94.6743    3.1631 C.ar    1  UNL1        0.0860
     28 C          63.5609   95.2817    1.7919 C.ar    1  UNL1        0.1180
     29 N          64.6851   96.2740    1.7492 N.ar    1  UNL1       -0.2249
     30 C          65.3494   96.2799    3.0940 C.ar    1  UNL1        0.1478
     31 C          66.6163   96.8549    4.3280 C.ar    1  UNL1        0.0374
     32 C          66.9458   96.5354    5.7560 C.ar    1  UNL1        0.0046
     33 C          66.1362   95.5172    6.5030 C.ar    1  UNL1        0.0192
     34 C          65.5408   95.5840    5.1278 C.ar    1  UNL1        0.0814
     35 N          64.6359   95.2912    3.9679 N.ar    1  UNL1       -0.2887
     36 H          65.0794   92.3677   11.7746 H       1  UNL1        0.1739
     37 H          58.8291   89.5393    5.6659 H       1  UNL1        0.1501
     38 C          67.5975   92.3534   12.7872 C.3     1  UNL1        0.2543
     39 O          66.8994   93.6453   12.4815 O.3     1  UNL1       -0.4553
@<TRIPOS>BOND
     1    38    39    1
     2    39     1    1
     3     1     2   ar
     4     2     3   ar
     5     3     4   ar
     6     4     5   ar
     7     5     6   ar
     8     6     7    1
     9     7     8    1
    10     8     9    2
    11     8    10    2
    12     8    11    1
    13    11    12   ar
    14    12    13   ar
    15    13    14   ar
    16    14    15   ar
    17    15    16   ar
    18    15    17    1
    19    17    18    2
    20    17    19   am
    21    19    20    1
    22    20    21    1
    23    21    22   ar
    24    22    23   ar
    25    23    24   ar
    26    24    25   ar
    27    25    26   ar
    28    25    27    1
    29    27    28   ar
    30    28    29   ar
    31    29    30   ar
    32    30    31   ar
    33    31    32   ar
    34    32    33   ar
    35    33    34   ar
    36    34    35   ar
    37     6     1   ar
    38    16    11   ar
    39    26    21   ar
    40    35    27   ar
    41    33     4    1
    42    35    30   ar
    43     7    36    1
    44    19    37    1
@<TRIPOS>MOLECULE
*****
 39 44 0 0 0
SMALL
GASTEIGER

@<TRIPOS>ATOM
      1 C          58.8921   89.5658    6.8522 C.ar    1  UNL1        0.2400
      2 N          59.0541   88.9554    8.2128 N.ar    1  UNL1       -0.2090
      3 C          60.1600   89.4170    9.1150 C.ar    1  UNL1        0.1021
      4 C          61.2778   90.4685    8.9670 C.ar    1  UNL1        0.0221
      5 C          60.3930   90.3670    7.7600 C.ar    1  UNL1        0.0222
      6 C          59.8360   90.6377    6.3939 C.ar    1  UNL1        0.1178
      7 N          59.6740   91.2481    5.0333 N.pl3   1  UNL1       -0.2104
      8 S          59.9266   92.1245    3.8424 S.O2    1  UNL1        0.0737
      9 O          59.2507   92.2726    2.5115 O.2     1  UNL1       -0.1499
     10 O          58.7545   91.2051    3.6656 O.2     1  UNL1       -0.1499
     11 C          60.5631   93.1612    2.9648 C.ar    1  UNL1        0.1253
     12 C          60.0062   93.4319    1.5987 C.ar    1  UNL1        0.0202
     13 C          60.6427   94.4686    0.7212 C.ar    1  UNL1        0.0015
     14 C          61.8363   95.2345    1.2098 C.ar    1  UNL1        0.0046
     15 C          62.3933   94.9638    2.5760 C.ar    1  UNL1        0.0547
     16 C          61.7567   93.9271    3.4535 C.ar    1  UNL1        0.0247
     17 C          63.8379   95.9769    3.0113 C.2     1  UNL1        0.2461
     18 O          64.0904   96.8533    1.8204 O.2     1  UNL1       -0.2701
     19 N          64.9437   96.4384    3.9136 N.am    1  UNL1       -0.2969
     20 C          65.8285   96.5400    5.1205 C.3     1  UNL1        0.1181
     21 C          66.3855   96.2692    6.4867 C.ar    1  UNL1        0.0167
     22 C          67.5681   96.8558    7.2831 C.ar    1  UNL1        0.0962
     23 N          68.1251   96.5850    8.6493 N.ar    1  UNL1       -0.2425
     24 C          67.4885   95.5484    9.5268 C.ar    1  UNL1        0.1003
     25 C          66.2949   94.7825    9.0382 C.ar    1  UNL1        0.0366
     26 C          66.5475   95.6589    7.8473 C.ar    1  UNL1        0.0020
     27 C          65.6584   93.7458    9.9157 C.ar    1  UNL1        0.0860
     28 C          66.6462   93.9954   11.0166 C.ar    1  UNL1        0.1180
     29 N          66.3129   93.0776   12.1553 N.ar    1  UNL1       -0.2249
     30 C          65.1190   92.2609   11.7582 C.ar    1  UNL1        0.1478
     31 C          63.8105   90.9699   12.0401 C.ar    1  UNL1        0.0374
     32 C          62.6646   90.4125   11.2488 C.ar    1  UNL1        0.0046
     33 C          62.3836   90.9301    9.8692 C.ar    1  UNL1        0.0192
     34 C          63.5772   91.6960   10.3579 C.ar    1  UNL1        0.0814
     35 N          64.7145   92.6739   10.3740 N.ar    1  UNL1       -0.2887
     36 H          58.8906   90.7454    4.7125 H       1  UNL1        0.1739
     37 H          65.3615   97.1188    3.3376 H       1  UNL1        0.1501
     38 C          56.5965   89.9856    5.7105 C.3     1  UNL1        0.2543
     39 O          57.7863   89.1042    5.9500 O.3     1  UNL1       -0.4553
@<TRIPOS>BOND
     1    38    39    1
     2    39     1    1
     3     1     2   ar
     4     2     3   ar
     5     3     4   ar
     6     4     5   ar
     7     5     6   ar
     8     6     7    1
     9     7     8    1
    10     8     9    2
    11     8    10    2
    12     8    11    1
    13    11    12   ar
    14    12    13   ar
    15    13    14   ar
    16    14    15   ar
    17    15    16   ar
    18    15    17    1
    19    17    18    2
    20    17    19   am
    21    19    20    1
    22    20    21    1
    23    21    22   ar
    24    22    23   ar
    25    23    24   ar
    26    24    25   ar
    27    25    26   ar
    28    25    27    1
    29    27    28   ar
    30    28    29   ar
    31    29    30   ar
    32    30    31   ar
    33    31    32   ar
    34    32    33   ar
    35    33    34   ar
    36    34    35   ar
    37     6     1   ar
    38    16    11   ar
    39    26    21   ar
    40    35    27   ar
    41    33     4    1
    42    35    30   ar
    43     7    36    1
    44    19    37    1
