@<TRIPOS>MOLECULE
*****
 32 36 0 0 0
SMALL
GASTEIGER

@<TRIPOS>ATOM
      1 C          63.4728   90.0599   13.2409 C.ar    1  UNL1        0.1603
      2 C          64.5019   91.1225   13.4896 C.ar    1  UNL1        0.0549
      3 C          64.7510   92.1816   12.4570 C.ar    1  UNL1        0.0741
      4 C          63.9711   92.1781   11.1758 C.ar    1  UNL1        0.1139
      5 N          62.9420   91.1155   10.9270 N.ar    1  UNL1       -0.2366
      6 C          62.6929   90.0564   11.9596 C.ar    1  UNL1        0.1497
      7 C          64.3127   88.0348   14.6350 C.3     1  UNL1        0.2525
      8 O          63.2237   89.0008   14.2735 O.3     1  UNL1       -0.4698
      9 C          61.6638   88.9938   11.7110 C.2     1  UNL1        0.1934
     10 O          60.2403   89.2159   12.1286 O.2     1  UNL1       -0.2896
     11 C          62.0582   87.7090   11.0447 C.3     1  UNL1        0.0691
     12 C          62.3938   86.9403    9.8012 C.3     1  UNL1        0.0141
     13 C          62.4058   86.2526   11.1342 C.3     1  UNL1        0.0443
     14 C          62.6133   85.0148   11.9555 C.2     1  UNL1        0.0504
     15 O          62.5425   85.0870   13.4521 O.co2   1  UNL1       -0.5492
     16 O          62.8917   83.7046   11.2802 O.co2   1  UNL1       -0.5492
     17 N          65.7802   93.2442   12.7057 N.pl3   1  UNL1       -0.2856
     18 C          66.2263   94.1336   11.5832 C.ar    1  UNL1        0.0516
     19 C          65.8112   95.5748   11.5578 C.ar    1  UNL1        0.0157
     20 C          66.2573   96.4641   10.4353 C.ar    1  UNL1        0.0127
     21 C          67.1184   95.9122    9.3381 C.ar    1  UNL1        0.0577
     22 CL         67.5645   96.8016    8.2156 Cl      1  UNL1       -0.0822
     23 C          67.5335   94.4710    9.3634 C.ar    1  UNL1        0.0118
     24 C          68.3946   93.9191    8.2662 C.ar    1  UNL1        0.0009
     25 C          68.8096   92.4779    8.2915 C.ar    1  UNL1        0.0000
     26 C          68.3635   91.5886    9.4141 C.ar    1  UNL1        0.0000
     27 C          67.5024   92.1405   10.5113 C.ar    1  UNL1        0.0013
     28 C          67.0874   93.5816   10.4859 C.ar    1  UNL1        0.0144
     29 C          66.3631   93.4175   14.0769 C.3     1  UNL1        0.0955
     30 C          67.6311   92.7073   14.4480 C.3     1  UNL1        0.0201
     31 C          68.6389   92.3039   15.4832 C.3     1  UNL1        0.0018
     32 C          68.8196   91.8806   14.0555 C.3     1  UNL1        0.0018
@<TRIPOS>UNITY_ATOM_ATTR
15 1
charge -1
@<TRIPOS>BOND
     1     7     8    1
     2     8     1    1
     3     1     2   ar
     4     2     3   ar
     5     3    17    1
     6    17    29    1
     7    29    30    1
     8    30    31    1
     9    31    32    1
    10    17    18    1
    11    18    19   ar
    12    19    20   ar
    13    20    21   ar
    14    21    22    1
    15    21    23   ar
    16    23    24   ar
    17    24    25   ar
    18    25    26   ar
    19    26    27   ar
    20    27    28   ar
    21     3     4   ar
    22     4     5   ar
    23     5     6   ar
    24     6     9    1
    25     9    10    2
    26    11     9    1
    27    11    12    1
    28    12    13    1
    29    13    14    1
    30    14    15   ar
    31    14    16   ar
    32     6     1   ar
    33    13    11    1
    34    32    30    1
    35    28    18   ar
    36    28    23   ar
@<TRIPOS>MOLECULE
*****
 32 36 0 0 0
SMALL
GASTEIGER

@<TRIPOS>ATOM
      1 C          63.9173   89.7869   12.9668 C.ar    1  UNL1        0.1603
      2 C          63.1217   88.6009   12.5082 C.ar    1  UNL1        0.0549
      3 C          62.4913   88.6015   11.1472 C.ar    1  UNL1        0.0741
      4 C          62.6565   89.7882   10.2447 C.ar    1  UNL1        0.1139
      5 N          63.4521   90.9743   10.7033 N.ar    1  UNL1       -0.2366
      6 C          64.0825   90.9736   12.0643 C.ar    1  UNL1        0.1497
      7 C          63.6927   89.6309   15.5505 C.3     1  UNL1        0.2525
      8 O          64.5478   89.7863   14.3279 O.3     1  UNL1       -0.4698
      9 C          64.8781   92.1597   12.5230 C.2     1  UNL1        0.1934
     10 O          65.0193   92.4468   13.9884 O.2     1  UNL1       -0.2896
     11 C          65.5325   93.0586   11.5161 C.3     1  UNL1        0.0691
     12 C          65.5678   94.3534   10.7598 C.3     1  UNL1        0.0141
     13 C          66.6306   93.3206   10.5285 C.3     1  UNL1        0.0443
     14 C          67.8783   92.8756    9.8248 C.2     1  UNL1        0.0504
     15 O          68.0090   91.4570    9.3550 O.co2   1  UNL1       -0.5492
     16 O          68.9953   93.8491    9.5908 O.co2   1  UNL1       -0.5492
     17 N          61.6957   87.4155   10.6885 N.pl3   1  UNL1       -0.2856
     18 C          62.3757   86.0973   10.4649 C.ar    1  UNL1        0.0516
     19 C          62.8059   85.7000    9.0840 C.ar    1  UNL1        0.0157
     20 C          63.4859   84.3818    8.8604 C.ar    1  UNL1        0.0127
     21 C          63.7357   83.4609   10.0178 C.ar    1  UNL1        0.0577
     22 CL         64.4156   82.1427    9.7942 Cl      1  UNL1       -0.0822
     23 C          63.3054   83.8581   11.3988 C.ar    1  UNL1        0.0118
     24 C          63.5552   82.9372   12.5561 C.ar    1  UNL1        0.0009
     25 C          63.1249   83.3345   13.9371 C.ar    1  UNL1        0.0000
     26 C          62.4449   84.6527   14.1607 C.ar    1  UNL1        0.0000
     27 C          62.1952   85.5736   13.0033 C.ar    1  UNL1        0.0013
     28 C          62.6254   85.1763   11.6224 C.ar    1  UNL1        0.0144
     29 C          60.2202   87.5476   10.4535 C.3     1  UNL1        0.0955
     30 C          59.6799   87.5400    9.0542 C.3     1  UNL1        0.0201
     31 C          59.0211   86.8124    7.9200 C.3     1  UNL1        0.0018
     32 C          59.4031   88.2546    7.7647 C.3     1  UNL1        0.0018
@<TRIPOS>UNITY_ATOM_ATTR
15 1
charge -1
@<TRIPOS>BOND
     1     7     8    1
     2     8     1    1
     3     1     2   ar
     4     2     3   ar
     5     3    17    1
     6    17    29    1
     7    29    30    1
     8    30    31    1
     9    31    32    1
    10    17    18    1
    11    18    19   ar
    12    19    20   ar
    13    20    21   ar
    14    21    22    1
    15    21    23   ar
    16    23    24   ar
    17    24    25   ar
    18    25    26   ar
    19    26    27   ar
    20    27    28   ar
    21     3     4   ar
    22     4     5   ar
    23     5     6   ar
    24     6     9    1
    25     9    10    2
    26    11     9    1
    27    11    12    1
    28    12    13    1
    29    13    14    1
    30    14    15   ar
    31    14    16   ar
    32     6     1   ar
    33    13    11    1
    34    32    30    1
    35    28    18   ar
    36    28    23   ar
@<TRIPOS>MOLECULE
*****
 32 36 0 0 0
SMALL
GASTEIGER

@<TRIPOS>ATOM
      1 C          62.4786   86.2231   11.1627 C.ar    1  UNL1        0.1603
      2 C          62.4228   87.7220   11.1471 C.ar    1  UNL1        0.0549
      3 C          63.0132   88.5062   12.2813 C.ar    1  UNL1        0.0741
      4 C          63.6593   87.7916   13.4310 C.ar    1  UNL1        0.1139
      5 N          63.7151   86.2928   13.4466 N.ar    1  UNL1       -0.2366
      6 C          63.1248   85.5085   12.3124 C.ar    1  UNL1        0.1497
      7 C          62.4298   85.6053    8.6396 C.3     1  UNL1        0.2525
      8 O          61.8883   85.4388   10.0284 O.3     1  UNL1       -0.4698
      9 C          63.1806   84.0096   12.3279 C.2     1  UNL1        0.1934
     10 O          63.7271   83.2672   11.1447 O.2     1  UNL1       -0.2896
     11 C          62.6898   83.2532   13.5266 C.3     1  UNL1        0.0691
     12 C          62.5088   83.1486   15.0119 C.3     1  UNL1        0.0141
     13 C          62.0209   82.0477   14.1175 C.3     1  UNL1        0.0443
     14 C          61.3529   80.7161   13.9423 C.2     1  UNL1        0.0504
     15 O          62.1027   79.5775   13.3168 O.co2   1  UNL1       -0.5492
     16 O          59.9352   80.5231   14.3927 O.co2   1  UNL1       -0.5492
     17 N          62.9574   90.0052   12.2658 N.pl3   1  UNL1       -0.2856
     18 C          63.9268   90.8003   13.0891 C.ar    1  UNL1        0.0516
     19 C          64.0226   90.5673   14.5678 C.ar    1  UNL1        0.0157
     20 C          64.9921   91.3624   15.3911 C.ar    1  UNL1        0.0127
     21 C          65.8658   92.3906   14.7358 C.ar    1  UNL1        0.0577
     22 CL         66.8353   93.1857   15.5591 Cl      1  UNL1       -0.0822
     23 C          65.7700   92.6236   13.2570 C.ar    1  UNL1        0.0118
     24 C          66.6437   93.6518   12.6017 C.ar    1  UNL1        0.0009
     25 C          66.5479   93.8848   11.1230 C.ar    1  UNL1        0.0000
     26 C          65.5784   93.0897   10.2997 C.ar    1  UNL1        0.0000
     27 C          64.7048   92.0615   10.9551 C.ar    1  UNL1        0.0013
     28 C          64.8006   91.8285   12.4337 C.ar    1  UNL1        0.0144
     29 C          61.9321   90.7089   11.4270 C.3     1  UNL1        0.0955
     30 C          60.4724   90.4428   11.6468 C.3     1  UNL1        0.0201
     31 C          59.0419   90.8820   11.5432 C.3     1  UNL1        0.0018
     32 C          59.3745   89.5428   12.1313 C.3     1  UNL1        0.0018
@<TRIPOS>UNITY_ATOM_ATTR
15 1
charge -1
@<TRIPOS>BOND
     1     7     8    1
     2     8     1    1
     3     1     2   ar
     4     2     3   ar
     5     3    17    1
     6    17    29    1
     7    29    30    1
     8    30    31    1
     9    31    32    1
    10    17    18    1
    11    18    19   ar
    12    19    20   ar
    13    20    21   ar
    14    21    22    1
    15    21    23   ar
    16    23    24   ar
    17    24    25   ar
    18    25    26   ar
    19    26    27   ar
    20    27    28   ar
    21     3     4   ar
    22     4     5   ar
    23     5     6   ar
    24     6     9    1
    25     9    10    2
    26    11     9    1
    27    11    12    1
    28    12    13    1
    29    13    14    1
    30    14    15   ar
    31    14    16   ar
    32     6     1   ar
    33    13    11    1
    34    32    30    1
    35    28    18   ar
    36    28    23   ar
@<TRIPOS>MOLECULE
*****
 32 36 0 0 0
SMALL
GASTEIGER

@<TRIPOS>ATOM
      1 C          63.5095   89.4147   12.7201 C.ar    1  UNL1        0.1603
      2 C          63.0543   88.0993   12.1610 C.ar    1  UNL1        0.0549
      3 C          63.3005   86.8334   12.9269 C.ar    1  UNL1        0.0741
      4 C          64.0018   86.8827   14.2520 C.ar    1  UNL1        0.1139
      5 N          64.4570   88.1981   14.8110 N.ar    1  UNL1       -0.2366
      6 C          64.2108   89.4641   14.0451 C.ar    1  UNL1        0.1497
      7 C          62.6931   90.6199   10.5681 C.3     1  UNL1        0.2525
      8 O          63.2633   90.6807   11.9541 O.3     1  UNL1       -0.4698
      9 C          64.6660   90.7795   14.6041 C.2     1  UNL1        0.1934
     10 O          63.8598   91.4608   15.6698 O.2     1  UNL1       -0.2896
     11 C          65.9275   91.4135   14.0975 C.3     1  UNL1        0.0691
     12 C          67.3635   91.7945   14.3039 C.3     1  UNL1        0.0141
     13 C          66.6764   92.1307   13.0136 C.3     1  UNL1        0.0443
     14 C          66.7120   92.7387   11.6429 C.2     1  UNL1        0.0504
     15 O          65.5359   93.5215   11.1388 O.co2   1  UNL1       -0.5492
     16 O          67.9238   92.5641   10.7762 O.co2   1  UNL1       -0.5492
     17 N          62.8453   85.5179   12.3679 N.pl3   1  UNL1       -0.2856
     18 C          62.7362   85.3313   10.8835 C.ar    1  UNL1        0.0516
     19 C          63.6816   84.4092   10.1721 C.ar    1  UNL1        0.0157
     20 C          63.5725   84.2226    8.6878 C.ar    1  UNL1        0.0127
     21 C          62.5182   84.9580    7.9148 C.ar    1  UNL1        0.0577
     22 CL         62.4091   84.7713    6.4305 Cl      1  UNL1       -0.0822
     23 C          61.5728   85.8800    8.6263 C.ar    1  UNL1        0.0118
     24 C          60.5184   86.6154    7.8533 C.ar    1  UNL1        0.0009
     25 C          59.5731   87.5375    8.5647 C.ar    1  UNL1        0.0000
     26 C          59.6821   87.7241   10.0491 C.ar    1  UNL1        0.0000
     27 C          60.7365   86.9887   10.8220 C.ar    1  UNL1        0.0013
     28 C          61.6818   86.0667   10.1106 C.ar    1  UNL1        0.0144
     29 C          62.4991   84.3892   13.2931 C.3     1  UNL1        0.0955
     30 C          62.8855   82.9837   12.9391 C.3     1  UNL1        0.0201
     31 C          62.5460   81.6595   12.3218 C.3     1  UNL1        0.0018
     32 C          63.8943   81.8737   12.9431 C.3     1  UNL1        0.0018
@<TRIPOS>UNITY_ATOM_ATTR
15 1
charge -1
@<TRIPOS>BOND
     1     7     8    1
     2     8     1    1
     3     1     2   ar
     4     2     3   ar
     5     3    17    1
     6    17    29    1
     7    29    30    1
     8    30    31    1
     9    31    32    1
    10    17    18    1
    11    18    19   ar
    12    19    20   ar
    13    20    21   ar
    14    21    22    1
    15    21    23   ar
    16    23    24   ar
    17    24    25   ar
    18    25    26   ar
    19    26    27   ar
    20    27    28   ar
    21     3     4   ar
    22     4     5   ar
    23     5     6   ar
    24     6     9    1
    25     9    10    2
    26    11     9    1
    27    11    12    1
    28    12    13    1
    29    13    14    1
    30    14    15   ar
    31    14    16   ar
    32     6     1   ar
    33    13    11    1
    34    32    30    1
    35    28    18   ar
    36    28    23   ar
@<TRIPOS>MOLECULE
*****
 32 36 0 0 0
SMALL
GASTEIGER

@<TRIPOS>ATOM
      1 C          63.7989   90.1032   12.8647 C.ar    1  UNL1        0.1603
      2 C          63.2381   88.9401   12.1014 C.ar    1  UNL1        0.0549
      3 C          63.3150   87.5575   12.6779 C.ar    1  UNL1        0.0741
      4 C          63.9527   87.3379   14.0177 C.ar    1  UNL1        0.1139
      5 N          64.5136   88.5010   14.7811 N.ar    1  UNL1       -0.2366
      6 C          64.4367   89.8836   14.2046 C.ar    1  UNL1        0.1497
      7 C          64.0192   91.7102   10.8352 C.3     1  UNL1        0.2525
      8 O          63.7221   91.4859   12.2883 O.3     1  UNL1       -0.4698
      9 C          64.9975   91.0468   14.9679 C.2     1  UNL1        0.1934
     10 O          64.2355   91.6225   16.1245 O.2     1  UNL1       -0.2896
     11 C          66.3205   91.6342   14.5745 C.3     1  UNL1        0.0691
     12 C          67.7247   92.0255   14.9280 C.3     1  UNL1        0.0141
     13 C          67.2076   92.2603   13.5397 C.3     1  UNL1        0.0443
     14 C          67.4213   92.7574   12.1407 C.2     1  UNL1        0.0504
     15 O          66.7477   94.0163   11.6809 O.co2   1  UNL1       -0.5492
     16 O          68.3087   91.9956   11.2014 O.co2   1  UNL1       -0.5492
     17 N          62.7541   86.3943   11.9146 N.pl3   1  UNL1       -0.2856
     18 C          61.7341   86.6247   10.8393 C.ar    1  UNL1        0.0516
     19 C          60.5434   87.4961   11.1093 C.ar    1  UNL1        0.0157
     20 C          59.5233   87.7264   10.0339 C.ar    1  UNL1        0.0127
     21 C          59.6939   87.0854    8.6886 C.ar    1  UNL1        0.0577
     22 CL         58.6738   87.3158    7.6132 Cl      1  UNL1       -0.0822
     23 C          60.8846   86.2140    8.4185 C.ar    1  UNL1        0.0118
     24 C          61.0553   85.5730    7.0732 C.ar    1  UNL1        0.0009
     25 C          62.2459   84.7017    6.8032 C.ar    1  UNL1        0.0000
     26 C          63.2660   84.4713    7.8785 C.ar    1  UNL1        0.0000
     27 C          63.0954   85.1123    9.2239 C.ar    1  UNL1        0.0013
     28 C          61.9047   85.9837    9.4939 C.ar    1  UNL1        0.0144
     29 C          63.2134   85.0009   12.2267 C.3     1  UNL1        0.0955
     30 C          62.6610   84.2787   13.4197 C.3     1  UNL1        0.0201
     31 C          62.1899   84.2933   14.8436 C.3     1  UNL1        0.0018
     32 C          62.1754   83.0131   14.0619 C.3     1  UNL1        0.0018
@<TRIPOS>UNITY_ATOM_ATTR
15 1
charge -1
@<TRIPOS>BOND
     1     7     8    1
     2     8     1    1
     3     1     2   ar
     4     2     3   ar
     5     3    17    1
     6    17    29    1
     7    29    30    1
     8    30    31    1
     9    31    32    1
    10    17    18    1
    11    18    19   ar
    12    19    20   ar
    13    20    21   ar
    14    21    22    1
    15    21    23   ar
    16    23    24   ar
    17    24    25   ar
    18    25    26   ar
    19    26    27   ar
    20    27    28   ar
    21     3     4   ar
    22     4     5   ar
    23     5     6   ar
    24     6     9    1
    25     9    10    2
    26    11     9    1
    27    11    12    1
    28    12    13    1
    29    13    14    1
    30    14    15   ar
    31    14    16   ar
    32     6     1   ar
    33    13    11    1
    34    32    30    1
    35    28    18   ar
    36    28    23   ar
@<TRIPOS>MOLECULE
*****
 32 36 0 0 0
SMALL
GASTEIGER

@<TRIPOS>ATOM
      1 C          63.5767   90.5411   12.2741 C.ar    1  UNL1        0.1603
      2 C          62.7597   89.5015   11.5659 C.ar    1  UNL1        0.0549
      3 C          62.7212   88.0952   12.0863 C.ar    1  UNL1        0.0741
      4 C          63.4998   87.7285   13.3148 C.ar    1  UNL1        0.1139
      5 N          64.3169   88.7681   14.0230 N.ar    1  UNL1       -0.2366
      6 C          64.3554   90.1744   13.5026 C.ar    1  UNL1        0.1497
      7 C          64.1591   92.2257   10.3839 C.3     1  UNL1        0.2525
      8 O          63.6152   91.9475   11.7538 O.3     1  UNL1       -0.4698
      9 C          65.1725   91.2141   14.2108 C.2     1  UNL1        0.1934
     10 O          64.6625   91.8338   15.4780 O.2     1  UNL1       -0.2896
     11 C          66.4995   91.6340   13.6517 C.3     1  UNL1        0.0691
     12 C          67.9843   91.7838   13.8033 C.3     1  UNL1        0.0141
     13 C          67.3132   92.2116   12.5318 C.3     1  UNL1        0.0443
     14 C          67.3956   92.7920   11.1511 C.2     1  UNL1        0.0504
     15 O          67.8376   91.9348   10.0023 O.co2   1  UNL1       -0.5492
     16 O          67.0358   94.2297   10.9192 O.co2   1  UNL1       -0.5492
     17 N          61.9041   87.0555   11.3781 N.pl3   1  UNL1       -0.2856
     18 C          62.5080   85.7222   11.0501 C.ar    1  UNL1        0.0516
     19 C          62.9625   85.4284    9.6512 C.ar    1  UNL1        0.0157
     20 C          63.5665   84.0951    9.3233 C.ar    1  UNL1        0.0127
     21 C          63.7159   83.0556   10.3943 C.ar    1  UNL1        0.0577
     22 CL         64.3199   81.7222   10.0663 Cl      1  UNL1       -0.0822
     23 C          63.2614   83.3493   11.7933 C.ar    1  UNL1        0.0118
     24 C          63.4109   82.3098   12.8643 C.ar    1  UNL1        0.0009
     25 C          62.9564   82.6037   14.2632 C.ar    1  UNL1        0.0000
     26 C          62.3524   83.9370   14.5911 C.ar    1  UNL1        0.0000
     27 C          62.2030   84.9765   13.5202 C.ar    1  UNL1        0.0013
     28 C          62.6575   84.6826   12.1212 C.ar    1  UNL1        0.0144
     29 C          60.4832   87.3491   10.9979 C.3     1  UNL1        0.0955
     30 C          60.1067   87.4871    9.5525 C.3     1  UNL1        0.0201
     31 C          59.6504   86.8689    8.2642 C.3     1  UNL1        0.0018
     32 C          59.9109   88.3443    8.3372 C.3     1  UNL1        0.0018
@<TRIPOS>UNITY_ATOM_ATTR
15 1
charge -1
@<TRIPOS>BOND
     1     7     8    1
     2     8     1    1
     3     1     2   ar
     4     2     3   ar
     5     3    17    1
     6    17    29    1
     7    29    30    1
     8    30    31    1
     9    31    32    1
    10    17    18    1
    11    18    19   ar
    12    19    20   ar
    13    20    21   ar
    14    21    22    1
    15    21    23   ar
    16    23    24   ar
    17    24    25   ar
    18    25    26   ar
    19    26    27   ar
    20    27    28   ar
    21     3     4   ar
    22     4     5   ar
    23     5     6   ar
    24     6     9    1
    25     9    10    2
    26    11     9    1
    27    11    12    1
    28    12    13    1
    29    13    14    1
    30    14    15   ar
    31    14    16   ar
    32     6     1   ar
    33    13    11    1
    34    32    30    1
    35    28    18   ar
    36    28    23   ar
@<TRIPOS>MOLECULE
*****
 32 36 0 0 0
SMALL
GASTEIGER

@<TRIPOS>ATOM
      1 C          62.9304   84.9567    9.6902 C.ar    1  UNL1        0.1603
      2 C          62.3982   86.3491    9.8577 C.ar    1  UNL1        0.0549
      3 C          62.1607   86.9008   11.2322 C.ar    1  UNL1        0.0741
      4 C          62.4554   86.0602   12.4390 C.ar    1  UNL1        0.1139
      5 N          62.9876   84.6679   12.2715 N.ar    1  UNL1       -0.2366
      6 C          63.2251   84.1161   10.8971 C.ar    1  UNL1        0.1497
      7 C          62.3404   84.8862    7.1609 C.3     1  UNL1        0.2525
      8 O          63.1679   84.4049    8.3157 O.3     1  UNL1       -0.4698
      9 C          63.7573   82.7237   10.7294 C.2     1  UNL1        0.1934
     10 O          64.8930   82.4635    9.7847 O.2     1  UNL1       -0.2896
     11 C          63.1538   81.5915   11.5066 C.3     1  UNL1        0.0691
     12 C          62.8519   80.1292   11.6490 C.3     1  UNL1        0.0141
     13 C          62.4103   81.0929   12.7101 C.3     1  UNL1        0.0443
     14 C          61.7261   81.3615   14.0177 C.2     1  UNL1        0.0504
     15 O          62.3706   82.2607   15.0306 O.co2   1  UNL1       -0.5492
     16 O          60.3973   80.7308   14.3123 O.co2   1  UNL1       -0.5492
     17 N          61.6285   88.2932   11.3998 N.pl3   1  UNL1       -0.2856
     18 C          62.5532   89.4686   11.2836 C.ar    1  UNL1        0.0516
     19 C          62.6552   90.2174    9.9879 C.ar    1  UNL1        0.0157
     20 C          63.5798   91.3928    9.8718 C.ar    1  UNL1        0.0127
     21 C          64.4025   91.8193   11.0513 C.ar    1  UNL1        0.0577
     22 CL         65.3272   92.9947   10.9351 Cl      1  UNL1       -0.0822
     23 C          64.3005   91.0705   12.3470 C.ar    1  UNL1        0.0118
     24 C          65.1232   91.4970   13.5265 C.ar    1  UNL1        0.0009
     25 C          65.0211   90.7482   14.8222 C.ar    1  UNL1        0.0000
     26 C          64.0965   89.5728   14.9383 C.ar    1  UNL1        0.0000
     27 C          63.2738   89.1463   13.7589 C.ar    1  UNL1        0.0013
     28 C          63.3758   89.8951   12.4632 C.ar    1  UNL1        0.0144
     29 C          60.1717   88.5102   11.6835 C.3     1  UNL1        0.0955
     30 C          59.5768   89.8803   11.5463 C.3     1  UNL1        0.0201
     31 C          58.5491   90.8965   11.9479 C.3     1  UNL1        0.0018
     32 C          59.5741   91.2373   10.9071 C.3     1  UNL1        0.0018
@<TRIPOS>UNITY_ATOM_ATTR
15 1
charge -1
@<TRIPOS>BOND
     1     7     8    1
     2     8     1    1
     3     1     2   ar
     4     2     3   ar
     5     3    17    1
     6    17    29    1
     7    29    30    1
     8    30    31    1
     9    31    32    1
    10    17    18    1
    11    18    19   ar
    12    19    20   ar
    13    20    21   ar
    14    21    22    1
    15    21    23   ar
    16    23    24   ar
    17    24    25   ar
    18    25    26   ar
    19    26    27   ar
    20    27    28   ar
    21     3     4   ar
    22     4     5   ar
    23     5     6   ar
    24     6     9    1
    25     9    10    2
    26    11     9    1
    27    11    12    1
    28    12    13    1
    29    13    14    1
    30    14    15   ar
    31    14    16   ar
    32     6     1   ar
    33    13    11    1
    34    32    30    1
    35    28    18   ar
    36    28    23   ar
@<TRIPOS>MOLECULE
*****
 32 36 0 0 0
SMALL
GASTEIGER

@<TRIPOS>ATOM
      1 C          64.1546   90.3252   13.0291 C.ar    1  UNL1        0.1603
      2 C          63.2661   89.1390   12.7978 C.ar    1  UNL1        0.0549
      3 C          62.7103   88.8736   11.4302 C.ar    1  UNL1        0.0741
      4 C          63.0430   89.7943   10.2937 C.ar    1  UNL1        0.1139
      5 N          63.9315   90.9805   10.5249 N.ar    1  UNL1       -0.2366
      6 C          64.4873   91.2459   11.8926 C.ar    1  UNL1        0.1497
      7 C          63.8576   90.3645   15.6098 C.3     1  UNL1        0.2525
      8 O          64.7104   90.5907   14.3968 O.3     1  UNL1       -0.4698
      9 C          65.3758   92.4321   12.1239 C.2     1  UNL1        0.1934
     10 O          65.0546   93.7472   11.4778 O.2     1  UNL1       -0.2896
     11 C          66.5856   92.3033   13.0012 C.3     1  UNL1        0.0691
     12 C          67.9838   91.8066   13.2213 C.3     1  UNL1        0.0141
     13 C          67.2828   92.5767   14.3009 C.3     1  UNL1        0.0443
     14 C          67.2807   93.1792   15.6745 C.2     1  UNL1        0.0504
     15 O          66.2396   92.7672   16.6726 O.co2   1  UNL1       -0.5492
     16 O          68.3198   94.1938   16.0501 O.co2   1  UNL1       -0.5492
     17 N          61.8217   87.6873   11.1989 N.pl3   1  UNL1       -0.2856
     18 C          62.4203   86.3630   10.8276 C.ar    1  UNL1        0.0516
     19 C          62.5434   85.9738    9.3843 C.ar    1  UNL1        0.0157
     20 C          63.1419   84.6495    9.0130 C.ar    1  UNL1        0.0127
     21 C          63.6174   83.7143   10.0850 C.ar    1  UNL1        0.0577
     22 CL         64.2159   82.3900    9.7138 Cl      1  UNL1       -0.0822
     23 C          63.4943   84.1035   11.5285 C.ar    1  UNL1        0.0118
     24 C          63.9697   83.1683   12.6006 C.ar    1  UNL1        0.0009
     25 C          63.8466   83.5575   14.0439 C.ar    1  UNL1        0.0000
     26 C          63.2480   84.8819   14.4152 C.ar    1  UNL1        0.0000
     27 C          62.7726   85.8170   13.3431 C.ar    1  UNL1        0.0013
     28 C          62.8957   85.4278   11.8998 C.ar    1  UNL1        0.0144
     29 C          60.3347   87.8255   11.3389 C.3     1  UNL1        0.0955
     30 C          59.7239   89.1789   11.5516 C.3     1  UNL1        0.0201
     31 C          59.6214   90.6299   11.1854 C.3     1  UNL1        0.0018
     32 C          58.7686   90.0720   12.2861 C.3     1  UNL1        0.0018
@<TRIPOS>UNITY_ATOM_ATTR
15 1
charge -1
@<TRIPOS>BOND
     1     7     8    1
     2     8     1    1
     3     1     2   ar
     4     2     3   ar
     5     3    17    1
     6    17    29    1
     7    29    30    1
     8    30    31    1
     9    31    32    1
    10    17    18    1
    11    18    19   ar
    12    19    20   ar
    13    20    21   ar
    14    21    22    1
    15    21    23   ar
    16    23    24   ar
    17    24    25   ar
    18    25    26   ar
    19    26    27   ar
    20    27    28   ar
    21     3     4   ar
    22     4     5   ar
    23     5     6   ar
    24     6     9    1
    25     9    10    2
    26    11     9    1
    27    11    12    1
    28    12    13    1
    29    13    14    1
    30    14    15   ar
    31    14    16   ar
    32     6     1   ar
    33    13    11    1
    34    32    30    1
    35    28    18   ar
    36    28    23   ar
@<TRIPOS>MOLECULE
*****
 32 36 0 0 0
SMALL
GASTEIGER

@<TRIPOS>ATOM
      1 C          63.0308   84.9945    9.9674 C.ar    1  UNL1        0.1603
      2 C          62.6564   86.4186   10.2532 C.ar    1  UNL1        0.0549
      3 C          62.6135   86.9131   11.6686 C.ar    1  UNL1        0.0741
      4 C          62.9451   85.9836   12.7983 C.ar    1  UNL1        0.1139
      5 N          63.3195   84.5595   12.5125 N.ar    1  UNL1       -0.2366
      6 C          63.3624   84.0650   11.0970 C.ar    1  UNL1        0.1497
      7 C          62.1895   85.1227    7.5126 C.3     1  UNL1        0.2525
      8 O          63.0737   84.4999    8.5519 O.3     1  UNL1       -0.4698
      9 C          63.7368   82.6408   10.8111 C.2     1  UNL1        0.1934
     10 O          64.7666   82.3315    9.7653 O.2     1  UNL1       -0.2896
     11 C          63.0814   81.5260   11.5711 C.3     1  UNL1        0.0691
     12 C          62.7208   80.0754   11.6962 C.3     1  UNL1        0.0141
     13 C          62.3068   81.0457   12.7625 C.3     1  UNL1        0.0443
     14 C          61.6205   81.3286   14.0659 C.2     1  UNL1        0.0504
     15 O          62.2681   82.2309   15.0741 O.co2   1  UNL1       -0.5492
     16 O          60.2866   80.7093   14.3611 O.co2   1  UNL1       -0.5492
     17 N          62.2391   88.3373   11.9545 N.pl3   1  UNL1       -0.2856
     18 C          63.1957   89.2320   12.6855 C.ar    1  UNL1        0.0516
     19 C          63.6047   88.9040   14.0908 C.ar    1  UNL1        0.0157
     20 C          64.5614   89.7988   14.8217 C.ar    1  UNL1        0.0127
     21 C          65.1090   91.0215   14.1473 C.ar    1  UNL1        0.0577
     22 CL         66.0657   91.9163   14.8783 Cl      1  UNL1       -0.0822
     23 C          64.7000   91.3496   12.7419 C.ar    1  UNL1        0.0118
     24 C          65.2476   92.5724   12.0675 C.ar    1  UNL1        0.0009
     25 C          64.8386   92.9004   10.6621 C.ar    1  UNL1        0.0000
     26 C          63.8820   92.0057    9.9312 C.ar    1  UNL1        0.0000
     27 C          63.3344   90.7829   10.6056 C.ar    1  UNL1        0.0013
     28 C          63.7434   90.4549   12.0110 C.ar    1  UNL1        0.0144
     29 C          60.9081   88.8666   11.5095 C.3     1  UNL1        0.0955
     30 C          60.4292   88.6121   10.1109 C.3     1  UNL1        0.0201
     31 C          60.2791   89.0606    8.6875 C.3     1  UNL1        0.0018
     32 C          59.7500   87.7228    9.1121 C.3     1  UNL1        0.0018
@<TRIPOS>UNITY_ATOM_ATTR
15 1
charge -1
@<TRIPOS>BOND
     1     7     8    1
     2     8     1    1
     3     1     2   ar
     4     2     3   ar
     5     3    17    1
     6    17    29    1
     7    29    30    1
     8    30    31    1
     9    31    32    1
    10    17    18    1
    11    18    19   ar
    12    19    20   ar
    13    20    21   ar
    14    21    22    1
    15    21    23   ar
    16    23    24   ar
    17    24    25   ar
    18    25    26   ar
    19    26    27   ar
    20    27    28   ar
    21     3     4   ar
    22     4     5   ar
    23     5     6   ar
    24     6     9    1
    25     9    10    2
    26    11     9    1
    27    11    12    1
    28    12    13    1
    29    13    14    1
    30    14    15   ar
    31    14    16   ar
    32     6     1   ar
    33    13    11    1
    34    32    30    1
    35    28    18   ar
    36    28    23   ar
