@<TRIPOS>MOLECULE
*****
 39 44 0 0 0
SMALL
GASTEIGER

@<TRIPOS>ATOM
      1 N          66.8697   94.3631   14.9006 N.pl3   1  UNL1       -0.3275
      2 C          66.1152   93.0669   14.8796 C.ar    1  UNL1        0.2143
      3 N          65.3464   92.4755   16.0237 N.ar    1  UNL1       -0.2126
      4 C          64.7531   91.1775   15.5619 C.ar    1  UNL1        0.1017
      5 C          63.8986   90.1604   16.2585 C.ar    1  UNL1        0.0208
      6 C          63.4463   88.9324   15.5254 C.ar    1  UNL1        0.0052
      7 C          63.8484   88.7216   14.0958 C.ar    1  UNL1        0.0450
      8 C          64.7029   89.7387   13.3993 C.ar    1  UNL1        0.0241
      9 C          65.1552   90.9667   14.1323 C.ar    1  UNL1        0.1027
     10 N          65.9971   92.1344   13.7106 N.ar    1  UNL1       -0.1822
     11 H          66.8887   94.9084   15.7202 H       1  UNL1        0.1451
     12 H          67.3459   94.6687   14.0950 H       1  UNL1        0.1451
     13 C          63.3961   87.4935   13.3627 C.2     1  UNL1        0.2240
     14 N          63.6587   86.0748   13.7732 N.2     1  UNL1       -0.0343
     15 C          63.0267   85.1731   12.7547 C.2     1  UNL1        0.3753
     16 N          62.3734   86.0344   11.7148 N.2     1  UNL1       -0.0510
     17 C          62.6017   87.4685   12.0906 C.3     1  UNL1        0.3017
     18 C          63.0447   83.6733   12.7729 C.ar    1  UNL1        0.1426
     19 C          63.5631   82.9150   11.5870 C.ar    1  UNL1        0.1497
     20 F          64.0634   83.6566   10.3829 F       1  UNL1       -0.2038
     21 C          63.5811   81.4152   11.6052 C.ar    1  UNL1        0.0300
     22 C          63.0808   80.6738   12.8093 C.ar    1  UNL1        0.0046
     23 C          62.5624   81.4320   13.9952 C.ar    1  UNL1        0.0300
     24 C          62.5444   82.9318   13.9770 C.ar    1  UNL1        0.1497
     25 F          62.0260   83.6901   15.1629 F       1  UNL1       -0.2038
     26 C          62.1202   88.6671   11.3281 C.ar    1  UNL1        0.0343
     27 C          60.6491   88.9116   11.1661 C.ar    1  UNL1        0.0003
     28 C          60.1675   90.1102   10.4036 C.ar    1  UNL1       -0.0002
     29 C          61.1570   91.0644    9.8031 C.ar    1  UNL1       -0.0000
     30 C          62.6280   90.8200    9.9652 C.ar    1  UNL1       -0.0002
     31 C          63.1095   89.6213   10.7277 C.ar    1  UNL1        0.0003
     32 S          66.6127   92.3344   12.3575 S.O2    1  UNL1        0.0667
     33 O          65.2682   92.6959   11.7992 O.2     1  UNL1       -0.1521
     34 O          67.9571   91.9729   12.9157 O.2     1  UNL1       -0.1521
     35 C          67.2283   92.5345   11.0042 C.3     1  UNL1        0.1515
     36 C          68.3237   91.7050   10.4025 C.3     1  UNL1        0.0257
     37 C          68.6289   92.2570    9.0416 C.3     1  UNL1        0.0019
     38 C          67.7220   93.4277    8.8023 C.3     1  UNL1        0.0019
     39 C          66.8564   93.5991   10.0152 C.3     1  UNL1        0.0257
@<TRIPOS>BOND
     1     1     2    1
     2     2     3   ar
     3     3     4   ar
     4     4     5   ar
     5     5     6   ar
     6     6     7   ar
     7     7    13    1
     8    13    14    2
     9    14    15    1
    10    15    18    1
    11    18    19   ar
    12    19    20    1
    13    19    21   ar
    14    21    22   ar
    15    22    23   ar
    16    23    24   ar
    17    24    25    1
    18    15    16    2
    19    16    17    1
    20    17    26    1
    21    26    27   ar
    22    27    28   ar
    23    28    29   ar
    24    29    30   ar
    25    30    31   ar
    26     7     8   ar
    27     8     9   ar
    28     9    10   ar
    29    10    32    1
    30    32    33    2
    31    32    34    2
    32    32    35    1
    33    35    36    1
    34    36    37    1
    35    37    38    1
    36    38    39    1
    37    10     2   ar
    38    39    35    1
    39     9     4   ar
    40    17    13    1
    41    31    26   ar
    42    24    18   ar
    43     1    11    1
    44     1    12    1
@<TRIPOS>MOLECULE
*****
 39 44 0 0 0
SMALL
GASTEIGER

@<TRIPOS>ATOM
      1 N          63.1023   84.5712   16.8302 N.pl3   1  UNL1       -0.3275
      2 C          63.2850   85.9265   16.2139 C.ar    1  UNL1        0.2143
      3 N          63.2100   87.2400   16.9344 N.ar    1  UNL1       -0.2126
      4 C          63.4533   88.3316   15.9347 C.ar    1  UNL1        0.1017
      5 C          63.4988   89.8247   16.0701 C.ar    1  UNL1        0.0208
      6 C          63.7697   90.6790   14.8673 C.ar    1  UNL1        0.0052
      7 C          63.9950   90.0400   13.5290 C.ar    1  UNL1        0.0450
      8 C          63.9496   88.5469   13.3936 C.ar    1  UNL1        0.0241
      9 C          63.6787   87.6927   14.5964 C.ar    1  UNL1        0.1027
     10 N          63.5746   86.2063   14.7690 N.ar    1  UNL1       -0.1822
     11 H          62.9143   84.4896   17.7932 H       1  UNL1        0.1451
     12 H          63.1705   83.7633   16.2718 H       1  UNL1        0.1451
     13 C          64.2659   90.8944   12.3261 C.2     1  UNL1        0.2240
     14 N          65.3982   91.8660   12.1717 N.2     1  UNL1       -0.0343
     15 C          65.2842   92.4992   10.8167 C.2     1  UNL1        0.3753
     16 N          64.0813   91.9188   10.1337 N.2     1  UNL1       -0.0510
     17 C          63.4521   90.9270   11.0666 C.3     1  UNL1        0.3017
     18 C          66.2103   93.5314   10.2451 C.ar    1  UNL1        0.1426
     19 C          67.4702   93.1064    9.5507 C.ar    1  UNL1        0.1497
     20 F          67.8039   91.6491    9.4279 F       1  UNL1       -0.2038
     21 C          68.3963   94.1386    8.9790 C.ar    1  UNL1        0.0300
     22 C          68.0625   95.5959    9.1018 C.ar    1  UNL1        0.0046
     23 C          66.8027   96.0209    9.7962 C.ar    1  UNL1        0.0300
     24 C          65.8765   94.9886   10.3678 C.ar    1  UNL1        0.1497
     25 F          64.6167   95.4136   11.0622 F       1  UNL1       -0.2038
     26 C          62.2244   90.1111   10.7886 C.ar    1  UNL1        0.0343
     27 C          60.8866   90.5773   11.2818 C.ar    1  UNL1        0.0003
     28 C          59.6590   89.7614   11.0038 C.ar    1  UNL1       -0.0002
     29 C          59.7691   88.4794   10.2328 C.ar    1  UNL1       -0.0000
     30 C          61.1068   88.0133    9.7397 C.ar    1  UNL1       -0.0002
     31 C          62.3345   88.8292   10.0176 C.ar    1  UNL1        0.0003
     32 S          63.7325   85.1798   13.6867 S.O2    1  UNL1        0.0667
     33 O          62.4132   85.5916   13.1037 O.2     1  UNL1       -0.1521
     34 O          65.0518   84.7681   14.2695 O.2     1  UNL1       -0.1521
     35 C          63.8904   84.1534   12.6042 C.3     1  UNL1        0.1515
     36 C          63.5316   84.3338   11.1590 C.3     1  UNL1        0.0257
     37 C          63.8542   83.0582   10.4386 C.3     1  UNL1        0.0019
     38 C          64.4123   82.0895   11.4387 C.3     1  UNL1        0.0019
     39 C          64.4347   82.7664   12.7771 C.3     1  UNL1        0.0257
@<TRIPOS>BOND
     1     1     2    1
     2     2     3   ar
     3     3     4   ar
     4     4     5   ar
     5     5     6   ar
     6     6     7   ar
     7     7    13    1
     8    13    14    2
     9    14    15    1
    10    15    18    1
    11    18    19   ar
    12    19    20    1
    13    19    21   ar
    14    21    22   ar
    15    22    23   ar
    16    23    24   ar
    17    24    25    1
    18    15    16    2
    19    16    17    1
    20    17    26    1
    21    26    27   ar
    22    27    28   ar
    23    28    29   ar
    24    29    30   ar
    25    30    31   ar
    26     7     8   ar
    27     8     9   ar
    28     9    10   ar
    29    10    32    1
    30    32    33    2
    31    32    34    2
    32    32    35    1
    33    35    36    1
    34    36    37    1
    35    37    38    1
    36    38    39    1
    37    10     2   ar
    38    39    35    1
    39     9     4   ar
    40    17    13    1
    41    31    26   ar
    42    24    18   ar
    43     1    11    1
    44     1    12    1
@<TRIPOS>MOLECULE
*****
 39 44 0 0 0
SMALL
GASTEIGER

@<TRIPOS>ATOM
      1 N          63.1016   84.5648   16.8233 N.pl3   1  UNL1       -0.3275
      2 C          63.2823   85.9218   16.2104 C.ar    1  UNL1        0.2143
      3 N          63.2055   87.2335   16.9341 N.ar    1  UNL1       -0.2126
      4 C          63.4472   88.3278   15.9371 C.ar    1  UNL1        0.1017
      5 C          63.4906   89.8207   16.0762 C.ar    1  UNL1        0.0208
      6 C          63.7602   90.6783   14.8755 C.ar    1  UNL1        0.0052
      7 C          63.9864   90.0430   13.5356 C.ar    1  UNL1        0.0450
      8 C          63.9431   88.5501   13.3965 C.ar    1  UNL1        0.0241
      9 C          63.6735   87.6925   14.5972 C.ar    1  UNL1        0.1027
     10 N          63.5715   86.2056   14.7662 N.ar    1  UNL1       -0.1822
     11 H          62.9137   84.4805   17.7861 H       1  UNL1        0.1451
     12 H          63.1709   83.7583   16.2629 H       1  UNL1        0.1451
     13 C          64.2560   90.9007   12.3349 C.2     1  UNL1        0.2240
     14 N          65.3863   91.8751   12.1832 N.2     1  UNL1       -0.0343
     15 C          65.2716   92.5112   10.8296 C.2     1  UNL1        0.3753
     16 N          64.0704   91.9298   10.1447 N.2     1  UNL1       -0.0510
     17 C          63.4428   90.9345   11.0750 C.3     1  UNL1        0.3017
     18 C          66.1958   93.5467   10.2609 C.ar    1  UNL1        0.1426
     19 C          65.8597   95.0030   10.3883 C.ar    1  UNL1        0.1497
     20 F          64.5993   95.4238   11.0845 F       1  UNL1       -0.2038
     21 C          66.7838   96.0386    9.8195 C.ar    1  UNL1        0.0300
     22 C          68.0441   95.6178    9.1233 C.ar    1  UNL1        0.0046
     23 C          68.3802   94.1615    8.9959 C.ar    1  UNL1        0.0300
     24 C          67.4560   93.1260    9.5647 C.ar    1  UNL1        0.1497
     25 F          67.7921   91.6696    9.4373 F       1  UNL1       -0.2038
     26 C          62.2170   90.1166   10.7945 C.ar    1  UNL1        0.0343
     27 C          62.3303   88.8372   10.0195 C.ar    1  UNL1        0.0003
     28 C          61.1046   88.0193    9.7391 C.ar    1  UNL1       -0.0002
     29 C          59.7656   88.4807   10.2336 C.ar    1  UNL1       -0.0000
     30 C          59.6525   89.7600   11.0085 C.ar    1  UNL1       -0.0002
     31 C          60.8782   90.5779   11.2889 C.ar    1  UNL1        0.0003
     32 S          63.7308   85.1820   13.6813 S.O2    1  UNL1        0.0667
     33 O          65.0491   84.7682   14.2653 O.2     1  UNL1       -0.1521
     34 O          62.4127   85.5958   13.0973 O.2     1  UNL1       -0.1521
     35 C          63.8902   84.1585   12.5964 C.3     1  UNL1        0.1515
     36 C          63.5346   84.3430   11.1509 C.3     1  UNL1        0.0257
     37 C          63.8579   83.0692   10.4277 C.3     1  UNL1        0.0019
     38 C          64.4133   82.0974   11.4263 C.3     1  UNL1        0.0019
     39 C          64.4333   82.7706   12.7666 C.3     1  UNL1        0.0257
@<TRIPOS>BOND
     1     1     2    1
     2     2     3   ar
     3     3     4   ar
     4     4     5   ar
     5     5     6   ar
     6     6     7   ar
     7     7    13    1
     8    13    14    2
     9    14    15    1
    10    15    18    1
    11    18    19   ar
    12    19    20    1
    13    19    21   ar
    14    21    22   ar
    15    22    23   ar
    16    23    24   ar
    17    24    25    1
    18    15    16    2
    19    16    17    1
    20    17    26    1
    21    26    27   ar
    22    27    28   ar
    23    28    29   ar
    24    29    30   ar
    25    30    31   ar
    26     7     8   ar
    27     8     9   ar
    28     9    10   ar
    29    10    32    1
    30    32    33    2
    31    32    34    2
    32    32    35    1
    33    35    36    1
    34    36    37    1
    35    37    38    1
    36    38    39    1
    37    10     2   ar
    38    39    35    1
    39     9     4   ar
    40    17    13    1
    41    31    26   ar
    42    24    18   ar
    43     1    11    1
    44     1    12    1
@<TRIPOS>MOLECULE
*****
 39 44 0 0 0
SMALL
GASTEIGER

@<TRIPOS>ATOM
      1 N          67.4496   94.2177   15.0744 N.pl3   1  UNL1       -0.3275
      2 C          66.4844   93.0973   14.8229 C.ar    1  UNL1        0.2143
      3 N          65.6858   92.3710   15.8644 N.ar    1  UNL1       -0.2126
      4 C          64.8562   91.3314   15.1709 C.ar    1  UNL1        0.1017
      5 C          63.8774   90.3193   15.6882 C.ar    1  UNL1        0.0208
      6 C          63.1845   89.3909   14.7353 C.ar    1  UNL1        0.0052
      7 C          63.4704   89.4746   13.2652 C.ar    1  UNL1        0.0450
      8 C          64.4492   90.4867   12.7479 C.ar    1  UNL1        0.0241
      9 C          65.1421   91.4151   13.7008 C.ar    1  UNL1        0.1027
     10 N          66.1484   92.5065   13.4857 N.ar    1  UNL1       -0.1822
     11 H          67.6038   94.5377   15.9925 H       1  UNL1        0.1451
     12 H          67.9288   94.6329   14.3213 H       1  UNL1        0.1451
     13 C          62.7774   88.5462   12.3123 C.2     1  UNL1        0.2240
     14 N          61.9542   88.9534   11.1264 N.2     1  UNL1       -0.0343
     15 C          61.4540   87.7065   10.4592 C.2     1  UNL1        0.3753
     16 N          61.9682   86.5287   11.2329 N.2     1  UNL1       -0.0510
     17 C          62.7861   87.0477   12.3781 C.3     1  UNL1        0.3017
     18 C          60.5912   87.6477    9.2336 C.ar    1  UNL1        0.1426
     19 C          60.3799   86.3415    8.5271 C.ar    1  UNL1        0.1497
     20 F          61.0315   85.0940    9.0462 F       1  UNL1       -0.2038
     21 C          59.5171   86.2827    7.3015 C.ar    1  UNL1        0.0300
     22 C          58.8656   87.5301    6.7824 C.ar    1  UNL1        0.0046
     23 C          59.0769   88.8363    7.4889 C.ar    1  UNL1        0.0300
     24 C          59.9397   88.8951    8.7145 C.ar    1  UNL1        0.1497
     25 F          60.1510   90.2014    9.4210 F       1  UNL1       -0.2038
     26 C          63.4892   86.2144   13.4083 C.ar    1  UNL1        0.0343
     27 C          63.1985   84.7464   13.5112 C.ar    1  UNL1        0.0003
     28 C          63.9016   83.9131   14.5414 C.ar    1  UNL1       -0.0002
     29 C          64.8954   84.5478   15.4687 C.ar    1  UNL1       -0.0000
     30 C          65.1860   86.0157   15.3657 C.ar    1  UNL1       -0.0002
     31 C          64.4829   86.8490   14.3355 C.ar    1  UNL1        0.0003
     32 S          66.7185   92.9323   12.1652 S.O2    1  UNL1        0.0667
     33 O          65.4264   93.6153   11.8276 O.2     1  UNL1       -0.1521
     34 O          68.0105   92.2493   12.5028 O.2     1  UNL1       -0.1521
     35 C          67.2886   93.3582   10.8447 C.3     1  UNL1        0.1515
     36 C          68.0770   92.4947    9.9051 C.3     1  UNL1        0.0257
     37 C          68.4460   93.3252    8.7117 C.3     1  UNL1        0.0019
     38 C          67.8856   94.7019    8.9138 C.3     1  UNL1        0.0019
     39 C          67.1703   94.7222   10.2321 C.3     1  UNL1        0.0257
@<TRIPOS>BOND
     1     1     2    1
     2     2     3   ar
     3     3     4   ar
     4     4     5   ar
     5     5     6   ar
     6     6     7   ar
     7     7    13    1
     8    13    14    2
     9    14    15    1
    10    15    18    1
    11    18    19   ar
    12    19    20    1
    13    19    21   ar
    14    21    22   ar
    15    22    23   ar
    16    23    24   ar
    17    24    25    1
    18    15    16    2
    19    16    17    1
    20    17    26    1
    21    26    27   ar
    22    27    28   ar
    23    28    29   ar
    24    29    30   ar
    25    30    31   ar
    26     7     8   ar
    27     8     9   ar
    28     9    10   ar
    29    10    32    1
    30    32    33    2
    31    32    34    2
    32    32    35    1
    33    35    36    1
    34    36    37    1
    35    37    38    1
    36    38    39    1
    37    10     2   ar
    38    39    35    1
    39     9     4   ar
    40    17    13    1
    41    31    26   ar
    42    24    18   ar
    43     1    11    1
    44     1    12    1
@<TRIPOS>MOLECULE
*****
 39 44 0 0 0
SMALL
GASTEIGER

@<TRIPOS>ATOM
      1 N          59.7218   86.0974    8.5806 N.pl3   1  UNL1       -0.3275
      2 C          60.4599   87.0824    9.4379 C.ar    1  UNL1        0.2143
      3 N          60.1712   88.5507    9.5421 N.ar    1  UNL1       -0.2126
      4 C          61.1491   89.1479   10.5101 C.ar    1  UNL1        0.1017
      5 C          61.3418   90.5505   11.0055 C.ar    1  UNL1        0.0208
      6 C          62.4275   90.8539   11.9949 C.ar    1  UNL1        0.0052
      7 C          63.3207   89.7547   12.4889 C.ar    1  UNL1        0.0450
      8 C          63.1281   88.3521   11.9935 C.ar    1  UNL1        0.0241
      9 C          62.0423   88.0487   11.0041 C.ar    1  UNL1        0.1027
     10 N          61.6163   86.7722   10.3414 N.ar    1  UNL1       -0.1822
     11 H          58.9719   86.3990    8.0185 H       1  UNL1        0.1451
     12 H          59.9872   85.1494    8.5801 H       1  UNL1        0.1451
     13 C          64.4065   90.0582   13.4784 C.2     1  UNL1        0.2240
     14 N          65.3533   91.2202   13.4197 N.2     1  UNL1       -0.0343
     15 C          66.2681   91.1332   14.6052 C.2     1  UNL1        0.3753
     16 N          65.8867   89.9174   15.3967 N.2     1  UNL1       -0.0510
     17 C          64.7362   89.2530   14.7003 C.3     1  UNL1        0.3017
     18 C          67.3707   92.0933   14.9404 C.ar    1  UNL1        0.1426
     19 C          67.2320   93.0134   16.1170 C.ar    1  UNL1        0.1497
     20 F          65.9907   92.9734   16.9583 F       1  UNL1       -0.2038
     21 C          68.3346   93.9736   16.4522 C.ar    1  UNL1        0.0300
     22 C          69.5758   94.0136   15.6109 C.ar    1  UNL1        0.0046
     23 C          69.7145   93.0935   14.4344 C.ar    1  UNL1        0.0300
     24 C          68.6119   92.1333   14.0992 C.ar    1  UNL1        0.1497
     25 F          68.7505   91.2132   12.9226 F       1  UNL1       -0.2038
     26 C          64.0379   88.0030   15.1473 C.ar    1  UNL1        0.0343
     27 C          64.2442   86.7199   14.3980 C.ar    1  UNL1        0.0003
     28 C          63.5460   85.4699   14.8451 C.ar    1  UNL1       -0.0002
     29 C          62.6415   85.5028   16.0413 C.ar    1  UNL1       -0.0000
     30 C          62.4353   86.7858   16.7905 C.ar    1  UNL1       -0.0002
     31 C          63.1335   88.0358   16.3434 C.ar    1  UNL1        0.0003
     32 S          62.2377   85.4224   10.5464 S.O2    1  UNL1        0.0667
     33 O          61.7443   85.4103   11.9629 O.2     1  UNL1       -0.1521
     34 O          62.7310   85.4344    9.1300 O.2     1  UNL1       -0.1521
     35 C          62.8590   84.0726   10.7514 C.3     1  UNL1        0.1515
     36 C          63.8576   83.4149    9.8457 C.3     1  UNL1        0.0257
     37 C          64.2066   82.0793   10.4327 C.3     1  UNL1        0.0019
     38 C          63.4236   81.9117   11.7012 C.3     1  UNL1        0.0019
     39 C          62.5908   83.1436   11.8981 C.3     1  UNL1        0.0257
@<TRIPOS>BOND
     1     1     2    1
     2     2     3   ar
     3     3     4   ar
     4     4     5   ar
     5     5     6   ar
     6     6     7   ar
     7     7    13    1
     8    13    14    2
     9    14    15    1
    10    15    18    1
    11    18    19   ar
    12    19    20    1
    13    19    21   ar
    14    21    22   ar
    15    22    23   ar
    16    23    24   ar
    17    24    25    1
    18    15    16    2
    19    16    17    1
    20    17    26    1
    21    26    27   ar
    22    27    28   ar
    23    28    29   ar
    24    29    30   ar
    25    30    31   ar
    26     7     8   ar
    27     8     9   ar
    28     9    10   ar
    29    10    32    1
    30    32    33    2
    31    32    34    2
    32    32    35    1
    33    35    36    1
    34    36    37    1
    35    37    38    1
    36    38    39    1
    37    10     2   ar
    38    39    35    1
    39     9     4   ar
    40    17    13    1
    41    31    26   ar
    42    24    18   ar
    43     1    11    1
    44     1    12    1
