@<TRIPOS>MOLECULE
*****
 20 22 0 0 0
SMALL
GASTEIGER

@<TRIPOS>ATOM
      1 C          65.7262   92.6546   12.3113 C.2     1  UNL1        0.1223
      2 C          65.6712   91.9607   13.6399 C.2     1  UNL1        0.0343
      3 C          64.6502   90.8895   13.8849 C.2     1  UNL1        0.0232
      4 C          63.6841   90.5123   12.8012 C.2     1  UNL1        0.0975
      5 N          62.5761   89.5025   12.7512 N.2     1  UNL1       -0.2200
      6 C          61.9462   89.5724   11.3916 C.2     1  UNL1        0.1901
      7 N          62.6650   90.6254   10.6013 N.2     1  UNL1       -0.2236
      8 C          63.7392   91.2062   11.4725 C.2     1  UNL1        0.0863
      9 C          64.7602   92.2774   11.2276 C.3     1  UNL1        0.1112
     10 C          66.4361   94.8597   11.1349 C.3     1  UNL1        0.2520
     11 O          66.7473   93.7258   12.0663 O.2     1  UNL1       -0.4753
     12 S          60.7989   88.7361   10.9073 S.3     1  UNL1       -0.0709
     13 C          60.9813   87.8205    9.7333 C.3     1  UNL1        0.0913
     14 C          61.7876   86.5643    9.8800 C.ar    1  UNL1       -0.0109
     15 C          61.8773   85.8820   11.2129 C.ar    1  UNL1       -0.0037
     16 C          62.6836   84.6257   11.3596 C.ar    1  UNL1       -0.0046
     17 C          63.4003   84.0516   10.1735 C.ar    1  UNL1       -0.0219
     18 C          64.2066   82.7954   10.3203 C.3     1  UNL1        0.0310
     19 C          63.3106   84.7339    8.8406 C.ar    1  UNL1       -0.0046
     20 C          62.5042   85.9902    8.6939 C.ar    1  UNL1       -0.0037
@<TRIPOS>BOND
     1    10    11    1
     2    11     1    1
     3     1     2    2
     4     2     3    1
     5     3     4    2
     6     4     5    1
     7     5     6    2
     8     6    12    1
     9    12    13    1
    10    13    14    1
    11    14    15   ar
    12    15    16   ar
    13    16    17   ar
    14    17    18    1
    15    17    19   ar
    16    19    20   ar
    17     6     7    1
    18     7     8    2
    19     8     9    1
    20     9     1    1
    21     8     4    1
    22    20    14   ar
@<TRIPOS>MOLECULE
*****
 20 22 0 0 0
SMALL
GASTEIGER

@<TRIPOS>ATOM
      1 C          65.3961   91.7878   13.3095 C.2     1  UNL1        0.1223
      2 C          65.4455   92.4076   11.9445 C.2     1  UNL1        0.0343
      3 C          64.4429   92.0082   10.9027 C.2     1  UNL1        0.0232
      4 C          63.3909   90.9891   11.2260 C.2     1  UNL1        0.0975
      5 N          62.2780   90.4017   10.4097 N.2     1  UNL1       -0.2200
      6 C          61.5407   89.4188   11.2703 C.2     1  UNL1        0.1901
      7 N          62.1980   89.3988   12.6184 N.2     1  UNL1       -0.2236
      8 C          63.3415   90.3693   12.5910 C.2     1  UNL1        0.0863
      9 C          64.3441   90.7687   13.6328 C.3     1  UNL1        0.1112
     10 C          66.9024   93.5990   14.4052 C.3     1  UNL1        0.2520
     11 O          66.3987   92.1872   14.3513 O.2     1  UNL1       -0.4753
     12 S          60.3544   88.5998   10.8554 S.3     1  UNL1       -0.0709
     13 C          60.4840   87.6020    9.7429 C.3     1  UNL1        0.0913
     14 C          61.4425   86.4554    9.8717 C.ar    1  UNL1       -0.0109
     15 C          61.6062   85.7592   11.1902 C.ar    1  UNL1       -0.0037
     16 C          62.5646   84.6126   11.3190 C.ar    1  UNL1       -0.0046
     17 C          63.3595   84.1622   10.1292 C.ar    1  UNL1       -0.0219
     18 C          64.3180   83.0156   10.2580 C.3     1  UNL1        0.0310
     19 C          63.1958   84.8585    8.8107 C.ar    1  UNL1       -0.0046
     20 C          62.2373   86.0051    8.6820 C.ar    1  UNL1       -0.0037
@<TRIPOS>BOND
     1    10    11    1
     2    11     1    1
     3     1     2    2
     4     2     3    1
     5     3     4    2
     6     4     5    1
     7     5     6    2
     8     6    12    1
     9    12    13    1
    10    13    14    1
    11    14    15   ar
    12    15    16   ar
    13    16    17   ar
    14    17    18    1
    15    17    19   ar
    16    19    20   ar
    17     6     7    1
    18     7     8    2
    19     8     9    1
    20     9     1    1
    21     8     4    1
    22    20    14   ar
@<TRIPOS>MOLECULE
*****
 20 22 0 0 0
SMALL
GASTEIGER

@<TRIPOS>ATOM
      1 C          65.9669   91.9781   13.4647 C.2     1  UNL1        0.1223
      2 C          65.7492   90.9184   14.5037 C.2     1  UNL1        0.0343
      3 C          64.5931   89.9710   14.3780 C.2     1  UNL1        0.0232
      4 C          63.6546   90.0833   13.2133 C.2     1  UNL1        0.0975
      5 N          62.4372   89.2974   12.8258 N.2     1  UNL1       -0.2200
      6 C          61.9025   89.8713   11.5472 C.2     1  UNL1        0.1901
      7 N          62.7894   91.0120   11.1445 N.2     1  UNL1       -0.2236
      8 C          63.8723   91.1430   12.1743 C.2     1  UNL1        0.0863
      9 C          65.0284   92.0904   12.3000 C.3     1  UNL1        0.1112
     10 C          67.4569   93.5288   14.9225 C.3     1  UNL1        0.2520
     11 O          67.1230   92.9255   13.5904 O.2     1  UNL1       -0.4753
     12 S          60.6931   89.3891   10.8022 S.3     1  UNL1       -0.0709
     13 C          60.3489   87.9292   10.7957 C.3     1  UNL1        0.0913
     14 C          60.7909   87.0595    9.6563 C.ar    1  UNL1       -0.0109
     15 C          59.8304   86.7204    8.5552 C.ar    1  UNL1       -0.0037
     16 C          60.2723   85.8507    7.4158 C.ar    1  UNL1       -0.0046
     17 C          61.6748   85.3200    7.3775 C.ar    1  UNL1       -0.0219
     18 C          62.1168   84.4503    6.2381 C.3     1  UNL1        0.0310
     19 C          62.6353   85.6591    8.4786 C.ar    1  UNL1       -0.0046
     20 C          62.1933   86.5288    9.6180 C.ar    1  UNL1       -0.0037
@<TRIPOS>BOND
     1    10    11    1
     2    11     1    1
     3     1     2    2
     4     2     3    1
     5     3     4    2
     6     4     5    1
     7     5     6    2
     8     6    12    1
     9    12    13    1
    10    13    14    1
    11    14    15   ar
    12    15    16   ar
    13    16    17   ar
    14    17    18    1
    15    17    19   ar
    16    19    20   ar
    17     6     7    1
    18     7     8    2
    19     8     9    1
    20     9     1    1
    21     8     4    1
    22    20    14   ar
@<TRIPOS>MOLECULE
*****
 20 22 0 0 0
SMALL
GASTEIGER

@<TRIPOS>ATOM
      1 C          65.4659   92.7559   11.3616 C.2     1  UNL1        0.1223
      2 C          65.5306   92.2894   12.7856 C.2     1  UNL1        0.0343
      3 C          64.5832   91.2333   13.2727 C.2     1  UNL1        0.0232
      4 C          63.5711   90.6438   12.3357 C.2     1  UNL1        0.0975
      5 N          62.5152   89.5961   12.5286 N.2     1  UNL1       -0.2200
      6 C          61.7978   89.4151   11.2237 C.2     1  UNL1        0.1901
      7 N          62.4104   90.3510   10.2243 N.2     1  UNL1       -0.2236
      8 C          63.5064   91.1104   10.9116 C.2     1  UNL1        0.0863
      9 C          64.4538   92.1664   10.4245 C.3     1  UNL1        0.1112
     10 C          66.1827   95.2499   11.2339 C.3     1  UNL1        0.2520
     11 O          66.4132   93.8120   10.8745 O.2     1  UNL1       -0.4753
     12 S          60.6665   88.4650   10.9640 S.3     1  UNL1       -0.0709
     13 C          60.9249   86.9885   10.9083 C.3     1  UNL1        0.0913
     14 C          61.2091   86.3259    9.5929 C.ar    1  UNL1       -0.0109
     15 C          62.5584   85.7249    9.3319 C.ar    1  UNL1       -0.0037
     16 C          62.8427   85.0623    8.0166 C.ar    1  UNL1       -0.0046
     17 C          61.7775   85.0007    6.9622 C.ar    1  UNL1       -0.0219
     18 C          62.0618   84.3381    5.6468 C.3     1  UNL1        0.0310
     19 C          60.4282   85.6017    7.2232 C.ar    1  UNL1       -0.0046
     20 C          60.1440   86.2643    8.5386 C.ar    1  UNL1       -0.0037
@<TRIPOS>BOND
     1    10    11    1
     2    11     1    1
     3     1     2    2
     4     2     3    1
     5     3     4    2
     6     4     5    1
     7     5     6    2
     8     6    12    1
     9    12    13    1
    10    13    14    1
    11    14    15   ar
    12    15    16   ar
    13    16    17   ar
    14    17    18    1
    15    17    19   ar
    16    19    20   ar
    17     6     7    1
    18     7     8    2
    19     8     9    1
    20     9     1    1
    21     8     4    1
    22    20    14   ar
@<TRIPOS>MOLECULE
*****
 20 22 0 0 0
SMALL
GASTEIGER

@<TRIPOS>ATOM
      1 C          61.3629   86.4279    8.9710 C.2     1  UNL1        0.1223
      2 C          62.3934   85.5411    8.3373 C.2     1  UNL1        0.0343
      3 C          63.2192   84.6232    9.1892 C.2     1  UNL1        0.0232
      4 C          63.0144   84.5922   10.6748 C.2     1  UNL1        0.0975
      5 N          63.6738   83.7971   11.7625 N.2     1  UNL1       -0.2200
      6 C          63.0509   84.1925   13.0685 C.2     1  UNL1        0.1901
      7 N          62.0064   85.2320   12.7879 N.2     1  UNL1       -0.2236
      8 C          61.9839   85.4789   11.3085 C.2     1  UNL1        0.0863
      9 C          61.1582   86.3968   10.4566 C.3     1  UNL1        0.1112
     10 C          59.1345   86.9652    7.7482 C.3     1  UNL1        0.2520
     11 O          60.5372   87.3457    8.1192 O.2     1  UNL1       -0.4753
     12 S          63.4094   83.6446   14.4180 S.3     1  UNL1       -0.0709
     13 C          64.3213   84.4184   15.3235 C.3     1  UNL1        0.0913
     14 C          64.0426   85.8638   15.6115 C.ar    1  UNL1       -0.0109
     15 C          64.5533   86.9256   14.6831 C.ar    1  UNL1       -0.0037
     16 C          64.2746   88.3710   14.9712 C.ar    1  UNL1       -0.0046
     17 C          63.4852   88.7547   16.1876 C.ar    1  UNL1       -0.0219
     18 C          63.2064   90.2001   16.4757 C.3     1  UNL1        0.0310
     19 C          62.9745   87.6929   17.1160 C.ar    1  UNL1       -0.0046
     20 C          63.2532   86.2474   16.8279 C.ar    1  UNL1       -0.0037
@<TRIPOS>BOND
     1    10    11    1
     2    11     1    1
     3     1     2    2
     4     2     3    1
     5     3     4    2
     6     4     5    1
     7     5     6    2
     8     6    12    1
     9    12    13    1
    10    13    14    1
    11    14    15   ar
    12    15    16   ar
    13    16    17   ar
    14    17    18    1
    15    17    19   ar
    16    19    20   ar
    17     6     7    1
    18     7     8    2
    19     8     9    1
    20     9     1    1
    21     8     4    1
    22    20    14   ar
@<TRIPOS>MOLECULE
*****
 20 22 0 0 0
SMALL
GASTEIGER

@<TRIPOS>ATOM
      1 C          63.7654   82.9305   11.8312 C.2     1  UNL1        0.1223
      2 C          64.0842   82.9463   10.3656 C.2     1  UNL1        0.0343
      3 C          63.5669   84.0548    9.4974 C.2     1  UNL1        0.0232
      4 C          62.7309   85.1475   10.0949 C.2     1  UNL1        0.0975
      5 N          62.0864   86.3611    9.4934 N.2     1  UNL1       -0.2200
      6 C          61.3692   87.0954   10.5873 C.2     1  UNL1        0.1901
      7 N          61.5705   86.3356   11.8649 N.2     1  UNL1       -0.2236
      8 C          62.4122   85.1317   11.5605 C.2     1  UNL1        0.0863
      9 C          62.9294   84.0232   12.4287 C.3     1  UNL1        0.1112
     10 C          63.3282   80.9979   13.5116 C.3     1  UNL1        0.2520
     11 O          64.2826   81.8220   12.6993 O.2     1  UNL1       -0.4753
     12 S          60.5879   88.3663   10.4310 S.3     1  UNL1       -0.0709
     13 C          61.2583   89.5981    9.8989 C.3     1  UNL1        0.0913
     14 C          62.3449   90.2624   10.6914 C.ar    1  UNL1       -0.0109
     15 C          62.5502   89.9008   12.1326 C.ar    1  UNL1       -0.0037
     16 C          63.6368   90.5650   12.9250 C.ar    1  UNL1       -0.0046
     17 C          64.5182   91.5909   12.2763 C.ar    1  UNL1       -0.0219
     18 C          65.6048   92.2551   13.0687 C.3     1  UNL1        0.0310
     19 C          64.3128   91.9525   10.8351 C.ar    1  UNL1       -0.0046
     20 C          63.2262   91.2882   10.0426 C.ar    1  UNL1       -0.0037
@<TRIPOS>BOND
     1    10    11    1
     2    11     1    1
     3     1     2    2
     4     2     3    1
     5     3     4    2
     6     4     5    1
     7     5     6    2
     8     6    12    1
     9    12    13    1
    10    13    14    1
    11    14    15   ar
    12    15    16   ar
    13    16    17   ar
    14    17    18    1
    15    17    19   ar
    16    19    20   ar
    17     6     7    1
    18     7     8    2
    19     8     9    1
    20     9     1    1
    21     8     4    1
    22    20    14   ar
@<TRIPOS>MOLECULE
*****
 20 22 0 0 0
SMALL
GASTEIGER

@<TRIPOS>ATOM
      1 C          62.5174   85.2309    8.2689 C.2     1  UNL1        0.1223
      2 C          61.5850   86.2907    8.7764 C.2     1  UNL1        0.0343
      3 C          61.3422   86.4332   10.2497 C.2     1  UNL1        0.0232
      4 C          62.0318   85.5159   11.2156 C.2     1  UNL1        0.0975
      5 N          61.9890   85.4179   12.7118 N.2     1  UNL1       -0.2200
      6 C          62.8949   84.2976   13.1291 C.2     1  UNL1        0.1901
      7 N          63.4976   83.7031   11.8908 N.2     1  UNL1       -0.2236
      8 C          62.9641   84.4561   10.7082 C.2     1  UNL1        0.0863
      9 C          63.2069   84.3136    9.2349 C.3     1  UNL1        0.1112
     10 C          61.8309   84.2598    5.9590 C.3     1  UNL1        0.2520
     11 O          62.7602   85.0884    6.7956 O.2     1  UNL1       -0.4753
     12 S          63.1529   83.8502   14.5375 S.3     1  UNL1       -0.0709
     13 C          64.1356   84.5940   15.3925 C.3     1  UNL1        0.0913
     14 C          63.9350   86.0547   15.6683 C.ar    1  UNL1       -0.0109
     15 C          63.1892   86.4909   16.8944 C.ar    1  UNL1       -0.0037
     16 C          62.9886   87.9516   17.1702 C.ar    1  UNL1       -0.0046
     17 C          63.5338   88.9761   16.2198 C.ar    1  UNL1       -0.0219
     18 C          63.3332   90.4368   16.4955 C.3     1  UNL1        0.0310
     19 C          64.2796   88.5399   14.9936 C.ar    1  UNL1       -0.0046
     20 C          64.4802   87.0791   14.7179 C.ar    1  UNL1       -0.0037
@<TRIPOS>BOND
     1    10    11    1
     2    11     1    1
     3     1     2    2
     4     2     3    1
     5     3     4    2
     6     4     5    1
     7     5     6    2
     8     6    12    1
     9    12    13    1
    10    13    14    1
    11    14    15   ar
    12    15    16   ar
    13    16    17   ar
    14    17    18    1
    15    17    19   ar
    16    19    20   ar
    17     6     7    1
    18     7     8    2
    19     8     9    1
    20     9     1    1
    21     8     4    1
    22    20    14   ar
@<TRIPOS>MOLECULE
*****
 20 22 0 0 0
SMALL
GASTEIGER

@<TRIPOS>ATOM
      1 C          64.4339   90.9092   14.9130 C.2     1  UNL1        0.1223
      2 C          63.7075   90.9271   16.2253 C.2     1  UNL1        0.0343
      3 C          63.2209   89.6439   16.8307 C.2     1  UNL1        0.0232
      4 C          63.4606   88.3428   16.1238 C.2     1  UNL1        0.0975
      5 N          63.1005   86.9293   16.4736 N.2     1  UNL1       -0.2200
      6 C          63.6044   86.0378   15.3775 C.2     1  UNL1        0.1901
      7 N          64.2759   86.9003   14.3503 N.2     1  UNL1       -0.2236
      8 C          64.1870   88.3249   14.8116 C.2     1  UNL1        0.0863
      9 C          64.6736   89.6081   14.2062 C.3     1  UNL1        0.1112
     10 C          66.3805   92.3790   14.0184 C.3     1  UNL1        0.2520
     11 O          64.9206   92.1924   14.3076 O.2     1  UNL1       -0.4753
     12 S          63.4618   84.5457   15.3190 S.3     1  UNL1       -0.0709
     13 C          64.4807   83.7230   14.5875 C.3     1  UNL1        0.0913
     14 C          64.0583   82.8491   13.4439 C.ar    1  UNL1       -0.0109
     15 C          64.4011   83.2380   12.0363 C.ar    1  UNL1       -0.0037
     16 C          63.9786   82.3641   10.8928 C.ar    1  UNL1       -0.0046
     17 C          63.2133   81.1013   11.1568 C.ar    1  UNL1       -0.0219
     18 C          62.7908   80.2274   10.0132 C.3     1  UNL1        0.0310
     19 C          62.8705   80.7124   12.5643 C.ar    1  UNL1       -0.0046
     20 C          63.2930   81.5864   13.7079 C.ar    1  UNL1       -0.0037
@<TRIPOS>BOND
     1    10    11    1
     2    11     1    1
     3     1     2    2
     4     2     3    1
     5     3     4    2
     6     4     5    1
     7     5     6    2
     8     6    12    1
     9    12    13    1
    10    13    14    1
    11    14    15   ar
    12    15    16   ar
    13    16    17   ar
    14    17    18    1
    15    17    19   ar
    16    19    20   ar
    17     6     7    1
    18     7     8    2
    19     8     9    1
    20     9     1    1
    21     8     4    1
    22    20    14   ar
@<TRIPOS>MOLECULE
*****
 20 22 0 0 0
SMALL
GASTEIGER

@<TRIPOS>ATOM
      1 C          60.4973   86.8420    8.3040 C.2     1  UNL1        0.1223
      2 C          59.7468   88.0954    7.9638 C.2     1  UNL1        0.0343
      3 C          60.0328   89.3661    8.7078 C.2     1  UNL1        0.0232
      4 C          61.0693   89.3834    9.7920 C.2     1  UNL1        0.0975
      5 N          61.5635   90.4779   10.6907 N.2     1  UNL1       -0.2200
      6 C          62.6195   89.9010   11.5863 C.2     1  UNL1        0.1901
      7 N          62.7778   88.4498   11.2412 N.2     1  UNL1       -0.2236
      8 C          61.8197   88.1300   10.1322 C.2     1  UNL1        0.0863
      9 C          61.5337   86.8593    9.3882 C.3     1  UNL1        0.1112
     10 C          61.2938   84.9118    6.7581 C.3     1  UNL1        0.2520
     11 O          60.2113   85.5713    7.5600 O.2     1  UNL1       -0.4753
     12 S          63.3830   90.6446   12.6418 S.3     1  UNL1       -0.0709
     13 C          64.4260   89.9349   13.4533 C.3     1  UNL1        0.0913
     14 C          64.0172   89.0686   14.6075 C.ar    1  UNL1       -0.0109
     15 C          63.3580   89.6806   15.8079 C.ar    1  UNL1       -0.0037
     16 C          62.9491   88.8144   16.9622 C.ar    1  UNL1       -0.0046
     17 C          63.1994   87.3361   16.9162 C.ar    1  UNL1       -0.0219
     18 C          62.7906   86.4698   18.0704 C.3     1  UNL1        0.0310
     19 C          63.8586   86.7241   15.7158 C.ar    1  UNL1       -0.0046
     20 C          64.2675   87.5904   14.5614 C.ar    1  UNL1       -0.0037
@<TRIPOS>BOND
     1    10    11    1
     2    11     1    1
     3     1     2    2
     4     2     3    1
     5     3     4    2
     6     4     5    1
     7     5     6    2
     8     6    12    1
     9    12    13    1
    10    13    14    1
    11    14    15   ar
    12    15    16   ar
    13    16    17   ar
    14    17    18    1
    15    17    19   ar
    16    19    20   ar
    17     6     7    1
    18     7     8    2
    19     8     9    1
    20     9     1    1
    21     8     4    1
    22    20    14   ar
