@<TRIPOS>MOLECULE
*****
 32 36 0 0 0
SMALL
GASTEIGER

@<TRIPOS>ATOM
      1 C          63.6994   90.7793   12.7542 C.2     1  UNL1        0.2257
      2 O          63.0286   91.5909   11.6859 O.2     1  UNL1       -0.2749
      3 N          63.5333   89.2887   12.7791 N.am    1  UNL1       -0.2760
      4 C          62.6965   88.6098   11.7358 C.3     1  UNL1        0.1149
      5 C          62.5304   87.1192   11.7607 C.3     1  UNL1        0.1141
      6 N          63.2011   86.3076   12.8290 N.pl3   1  UNL1       -0.2846
      7 C          64.0380   86.9865   13.8723 C.3     1  UNL1        0.1141
      8 C          64.2041   88.4771   13.8474 C.3     1  UNL1        0.1149
      9 C          63.0351   84.8170   12.8539 C.ar    1  UNL1        0.1645
     10 N          63.1783   83.8942   11.6801 N.ar    1  UNL1       -0.2225
     11 C          62.9283   82.4944   12.1577 C.ar    1  UNL1        0.1070
     12 C          62.9334   81.1747   11.4448 C.ar    1  UNL1        0.0228
     13 C          62.6407   79.9127   12.2009 C.ar    1  UNL1        0.0223
     14 C          62.3429   79.9704   13.6699 C.ar    1  UNL1        0.0995
     15 N          62.3379   81.2901   14.3828 N.ar    1  UNL1       -0.2357
     16 C          62.6306   82.5521   13.6268 C.ar    1  UNL1        0.1308
     17 S          62.6966   83.9876   14.0570 S.2     1  UNL1       -0.0325
     18 C          65.7124   92.2944   13.3883 C.3     1  UNL1        0.0851
     19 C          66.5493   92.9734   14.4318 C.3     1  UNL1        0.0096
     20 C          66.2100   92.8161   15.8844 C.3     1  UNL1        0.0005
     21 C          65.0339   91.9800   16.2936 C.3     1  UNL1        0.0005
     22 C          64.1970   91.3010   15.2503 C.3     1  UNL1        0.0096
     23 C          64.5363   91.4582   13.7975 C.3     1  UNL1        0.0853
     24 N          67.3342   93.1172   11.5328 N.am    1  UNL1       -0.2959
     25 C          66.0517   92.4517   11.9357 C.2     1  UNL1        0.2231
     26 O          65.1085   91.9434   10.8860 O.2     1  UNL1       -0.2751
     27 H          67.9532   93.4508   12.2218 H       1  UNL1        0.1502
     28 C          67.6735   93.2744   10.0802 C.3     1  UNL1        0.1364
     29 C          68.2367   92.9712    8.7234 C.3     1  UNL1        0.0353
     30 C          68.4361   92.0032    9.8518 C.3     1  UNL1        0.0353
     31 N          66.3837   95.9262    9.5281 N.1     1  UNL1       -0.1943
     32 C          67.0286   94.6004    9.8042 C.1     1  UNL1        0.0896
@<TRIPOS>BOND
     1    31    32    3
     2    32    28    1
     3    28    24    1
     4    24    25   am
     5    25    26    2
     6    18    25    1
     7    18    19    1
     8    19    20    1
     9    20    21    1
    10    21    22    1
    11    22    23    1
    12    23     1    1
    13     1     2    2
    14     1     3   am
    15     3     4    1
    16     4     5    1
    17     5     6    1
    18     6     9    1
    19     9    10   ar
    20    10    11   ar
    21    11    12   ar
    22    12    13   ar
    23    13    14   ar
    24    14    15   ar
    25    15    16   ar
    26    16    17   ar
    27     6     7    1
    28     7     8    1
    29    28    29    1
    30    29    30    1
    31    30    28    1
    32    23    18    1
    33     8     3    1
    34    17     9   ar
    35    16    11   ar
    36    24    27    1
@<TRIPOS>MOLECULE
*****
 32 36 0 0 0
SMALL
GASTEIGER

@<TRIPOS>ATOM
      1 C          64.0626   90.2838   15.5721 C.2     1  UNL1        0.2257
      2 O          63.6529   90.9021   16.8759 O.2     1  UNL1       -0.2749
      3 N          63.8356   88.8207   15.3318 N.am    1  UNL1       -0.2760
      4 C          63.1990   87.9759   16.3952 C.3     1  UNL1        0.1149
      5 C          62.9721   86.5127   16.1549 C.3     1  UNL1        0.1141
      6 N          63.3817   85.8944   14.8512 N.pl3   1  UNL1       -0.2846
      7 C          64.0184   86.7392   13.7877 C.3     1  UNL1        0.1141
      8 C          64.2453   88.2024   14.0280 C.3     1  UNL1        0.1149
      9 C          63.1548   84.4313   14.6109 C.ar    1  UNL1        0.1645
     10 N          61.8264   83.7347   14.6030 N.ar    1  UNL1       -0.2225
     11 C          62.0670   82.2808   14.3235 C.ar    1  UNL1        0.1070
     12 C          61.1319   81.1147   14.1978 C.ar    1  UNL1        0.0228
     13 C          61.6739   79.7466   13.9072 C.ar    1  UNL1        0.0223
     14 C          63.1511   79.5446   13.7424 C.ar    1  UNL1        0.0995
     15 N          64.0862   80.7106   13.8681 N.ar    1  UNL1       -0.2357
     16 C          63.5441   82.0787   14.1586 C.ar    1  UNL1        0.1308
     17 S          64.2164   83.4078   14.3362 S.2     1  UNL1       -0.0325
     18 C          64.1116   91.1664   13.1291 C.3     1  UNL1        0.0851
     19 C          64.7483   92.0113   12.0656 C.3     1  UNL1        0.0096
     20 C          65.9725   92.8183   12.3818 C.3     1  UNL1        0.0005
     21 C          66.5601   92.7806   13.7614 C.3     1  UNL1        0.0005
     22 C          65.9234   91.9357   14.8248 C.3     1  UNL1        0.0096
     23 C          64.6992   91.1286   14.5087 C.3     1  UNL1        0.0853
     24 N          62.6782   89.8259   11.4266 N.am    1  UNL1       -0.2959
     25 C          62.8875   90.3594   12.8129 C.2     1  UNL1        0.2231
     26 O          61.8725   90.0858   13.8829 O.2     1  UNL1       -0.2751
     27 H          63.3444   90.0055   10.7243 H       1  UNL1        0.1502
     28 C          61.4540   89.0188   11.1104 C.3     1  UNL1        0.1364
     29 C          60.5938   87.8405   10.7615 C.3     1  UNL1        0.0353
     30 C          62.0770   87.6697   10.9063 C.3     1  UNL1        0.0353
     31 N          59.3577   91.1566   11.2990 N.1     1  UNL1       -0.1943
     32 C          60.4059   90.0877   11.2048 C.1     1  UNL1        0.0896
@<TRIPOS>BOND
     1    31    32    3
     2    32    28    1
     3    28    24    1
     4    24    25   am
     5    25    26    2
     6    18    25    1
     7    18    19    1
     8    19    20    1
     9    20    21    1
    10    21    22    1
    11    22    23    1
    12    23     1    1
    13     1     2    2
    14     1     3   am
    15     3     4    1
    16     4     5    1
    17     5     6    1
    18     6     9    1
    19     9    10   ar
    20    10    11   ar
    21    11    12   ar
    22    12    13   ar
    23    13    14   ar
    24    14    15   ar
    25    15    16   ar
    26    16    17   ar
    27     6     7    1
    28     7     8    1
    29    28    29    1
    30    29    30    1
    31    30    28    1
    32    23    18    1
    33     8     3    1
    34    17     9   ar
    35    16    11   ar
    36    24    27    1
@<TRIPOS>MOLECULE
*****
 32 36 0 0 0
SMALL
GASTEIGER

@<TRIPOS>ATOM
      1 C          60.4104   94.2039    1.7970 C.2     1  UNL1        0.2257
      2 O          60.1315   95.4548    2.5763 O.2     1  UNL1       -0.2749
      3 N          59.6609   93.9286    0.5271 N.am    1  UNL1       -0.2760
      4 C          58.6325   94.9042    0.0366 C.3     1  UNL1        0.1149
      5 C          57.8830   94.6289   -1.2332 C.3     1  UNL1        0.1141
      6 N          58.1619   93.3780   -2.0126 N.pl3   1  UNL1       -0.2846
      7 C          59.1903   92.4024   -1.5220 C.3     1  UNL1        0.1141
      8 C          59.9397   92.6777   -0.2522 C.3     1  UNL1        0.1149
      9 C          57.4124   93.1026   -3.2824 C.ar    1  UNL1        0.1645
     10 N          56.8765   94.1335   -4.2311 N.ar    1  UNL1       -0.2225
     11 C          56.2001   93.4161   -5.3615 C.ar    1  UNL1        0.1070
     12 C          55.4921   93.9148   -6.5862 C.ar    1  UNL1        0.0228
     13 C          54.9020   92.9393   -7.5609 C.ar    1  UNL1        0.0223
     14 C          55.0199   91.4650   -7.3108 C.ar    1  UNL1        0.0995
     15 N          55.7280   90.9662   -6.0861 N.ar    1  UNL1       -0.2357
     16 C          56.3180   91.9418   -5.1115 C.ar    1  UNL1        0.1308
     17 S          57.0673   91.7481   -3.8265 S.2     1  UNL1       -0.0325
     18 C          62.8492   93.3085    1.7833 C.3     1  UNL1        0.0851
     19 C          63.8776   92.3328    2.2739 C.3     1  UNL1        0.0096
     20 C          63.4954   91.2771    3.2685 C.3     1  UNL1        0.0005
     21 C          62.0850   91.1969    3.7727 C.3     1  UNL1        0.0005
     22 C          61.0566   92.1725    3.2822 C.3     1  UNL1        0.0096
     23 C          61.4387   93.2283    2.2875 C.3     1  UNL1        0.0853
     24 N          63.2132   94.0538   -0.6787 N.am    1  UNL1       -0.2959
     25 C          63.2313   94.3642    0.7887 C.2     1  UNL1        0.2231
     26 O          63.6315   95.7303    1.2615 O.2     1  UNL1       -0.2751
     27 H          62.9505   93.1572   -0.9890 H       1  UNL1        0.1502
     28 C          63.5953   95.1096   -1.6734 C.3     1  UNL1        0.1364
     29 C          64.4234   96.1265   -2.4016 C.3     1  UNL1        0.0353
     30 C          65.0120   95.3643   -1.2516 C.3     1  UNL1        0.0353
     31 N          61.0271   95.3334   -3.2079 N.1     1  UNL1       -0.1943
     32 C          62.3112   95.2215   -2.4407 C.1     1  UNL1        0.0896
@<TRIPOS>BOND
     1    31    32    3
     2    32    28    1
     3    28    24    1
     4    24    25   am
     5    25    26    2
     6    18    25    1
     7    18    19    1
     8    19    20    1
     9    20    21    1
    10    21    22    1
    11    22    23    1
    12    23     1    1
    13     1     2    2
    14     1     3   am
    15     3     4    1
    16     4     5    1
    17     5     6    1
    18     6     9    1
    19     9    10   ar
    20    10    11   ar
    21    11    12   ar
    22    12    13   ar
    23    13    14   ar
    24    14    15   ar
    25    15    16   ar
    26    16    17   ar
    27     6     7    1
    28     7     8    1
    29    28    29    1
    30    29    30    1
    31    30    28    1
    32    23    18    1
    33     8     3    1
    34    17     9   ar
    35    16    11   ar
    36    24    27    1
