@<TRIPOS>MOLECULE
*****
 39 44 0 0 0
SMALL
GASTEIGER

@<TRIPOS>ATOM
      1 C          63.1913   89.2499   15.9763 C.3     1  UNL1        0.0553
      2 C          63.8995   90.0814   14.9482 C.ar    1  UNL1        0.0931
      3 N          65.1733   90.7892   15.3039 N.ar    1  UNL1       -0.2465
      4 C          65.8814   91.6209   14.2757 C.ar    1  UNL1        0.0856
      5 C          65.3158   91.7447   12.8920 C.ar    1  UNL1        0.0379
      6 C          64.0420   91.0369   12.5364 C.ar    1  UNL1        0.0411
      7 C          63.3339   90.2053   13.5644 C.ar    1  UNL1        0.1521
      8 C          66.0239   92.5763   11.8639 C.ar    1  UNL1        0.0777
      9 C          67.3259   92.1062   11.2862 C.ar    1  UNL1        0.1176
     10 N          68.0340   92.9378   10.2581 N.ar    1  UNL1       -0.2209
     11 C          67.4401   94.2395    9.8077 C.ar    1  UNL1        0.2006
     12 N          67.9052   95.2656    8.8173 N.ar    1  UNL1       -0.1272
     13 N          66.8906   96.3699    8.7830 N.ar    1  UNL1       -0.1493
     14 C          65.7985   96.0262    9.7521 C.ar    1  UNL1        0.0995
     15 C          64.5806   96.8539   10.0378 C.3     1  UNL1        0.0557
     16 C          66.1381   94.7096   10.3854 C.ar    1  UNL1        0.1101
     17 N          65.4300   93.8780   11.4135 N.ar    1  UNL1       -0.3484
     18 H          64.5755   94.1865   11.7927 H       1  UNL1        0.1661
     19 C          67.1552   92.3287   14.6314 C.ar    1  UNL1        0.0584
     20 C          67.2860   93.4884   15.5736 C.ar    1  UNL1        0.0453
     21 C          68.7335   93.8775   15.6318 C.ar    1  UNL1        0.1798
     22 O          69.4973   92.9582   14.7255 O.2     1  UNL1       -0.4473
     23 C          68.5219   92.0010   14.1072 C.ar    1  UNL1        0.1812
     24 O          62.0601   89.4975   13.2088 O.3     1  UNL1       -0.4728
     25 C          61.1297   90.0924   12.1937 C.3     1  UNL1        0.2211
     26 C          60.9267   89.4117   10.8726 C.3     1  UNL1        0.0995
     27 N          61.5947   89.9489    9.6416 N.3     1  UNL1       -0.3190
     28 H          61.3485   89.3679    8.8402 H       1  UNL1        0.1189
     29 H          62.6063   89.9380    9.7716 H       1  UNL1        0.1189
     30 C          60.0556   88.1938   10.7824 C.3     1  UNL1        0.0472
     31 C          59.9678   87.4282    9.4955 C.2     1  UNL1       -0.0005
     32 C          58.7946   87.4061    8.5610 C.2     1  UNL1        0.0942
     33 N          59.1396   86.5145    7.4050 N.2     1  UNL1       -0.2482
     34 C          60.5259   85.9856    7.6251 C.2     1  UNL1        0.0631
     35 C          61.3883   85.0627    6.8160 C.3     1  UNL1        0.0717
     36 C          62.7625   84.7046    7.2989 C.2     1  UNL1       -0.0198
     37 C          63.2744   85.2693    8.5908 C.2     1  UNL1       -0.0042
     38 C          62.4120   86.1922    9.3999 C.2     1  UNL1        0.0006
     39 C          61.0378   86.5503    8.9170 C.2     1  UNL1        0.0114
@<TRIPOS>BOND
     1     1     2    1
     2     2     3   ar
     3     3     4   ar
     4     4    19    1
     5    19    20   ar
     6    20    21   ar
     7    21    22   ar
     8    22    23   ar
     9     4     5   ar
    10     5     8    1
    11     8     9   ar
    12     9    10   ar
    13    10    11   ar
    14    11    12   ar
    15    12    13   ar
    16    13    14   ar
    17    14    15    1
    18    14    16   ar
    19    16    17   ar
    20     5     6   ar
    21     6     7   ar
    22     7    24    1
    23    24    25    1
    24    25    26    1
    25    26    27    1
    26    26    30    1
    27    30    31    1
    28    31    32    2
    29    32    33    1
    30    33    34    2
    31    34    35    1
    32    35    36    1
    33    36    37    2
    34    37    38    1
    35    38    39    2
    36     7     2   ar
    37    39    31    1
    38    23    19   ar
    39    17     8   ar
    40    39    34    1
    41    16    11    1
    42    17    18    1
    43    27    28    1
    44    27    29    1
@<TRIPOS>MOLECULE
*****
 39 44 0 0 0
SMALL
GASTEIGER

@<TRIPOS>ATOM
      1 C          63.0418   89.2841   15.9587 C.3     1  UNL1        0.0553
      2 C          63.7598   90.1101   14.9330 C.ar    1  UNL1        0.0931
      3 N          65.0702   90.7558   15.2735 N.ar    1  UNL1       -0.2465
      4 C          65.7882   91.5818   14.2477 C.ar    1  UNL1        0.0856
      5 C          65.1958   91.7621   12.8815 C.ar    1  UNL1        0.0379
      6 C          63.8854   91.1164   12.5410 C.ar    1  UNL1        0.0411
      7 C          63.1674   90.2904   13.5667 C.ar    1  UNL1        0.1521
      8 C          65.9139   92.5881   11.8557 C.ar    1  UNL1        0.0777
      9 C          67.2213   92.1149   11.2930 C.ar    1  UNL1        0.1176
     10 N          67.9392   92.9409   10.2673 N.ar    1  UNL1       -0.2209
     11 C          67.3498   94.2401    9.8042 C.ar    1  UNL1        0.2006
     12 N          67.8244   95.2609    8.8127 N.ar    1  UNL1       -0.1272
     13 N          66.8103   96.3649    8.7627 N.ar    1  UNL1       -0.1493
     14 C          65.7089   96.0266    9.7232 C.ar    1  UNL1        0.0995
     15 C          64.4884   96.8558    9.9927 C.3     1  UNL1        0.0557
     16 C          66.0423   94.7134   10.3668 C.ar    1  UNL1        0.1101
     17 N          65.3244   93.8874   11.3926 N.ar    1  UNL1       -0.3484
     18 H          64.4663   94.1980   11.7619 H       1  UNL1        0.1661
     19 C          67.0986   92.2275   14.5881 C.ar    1  UNL1        0.0584
     20 C          67.3067   93.3267   15.5874 C.ar    1  UNL1        0.0453
     21 C          68.7677   93.6659   15.6059 C.ar    1  UNL1        0.1798
     22 O          69.4627   92.7763   14.6182 O.2     1  UNL1       -0.4473
     23 C          68.4311   91.8874   13.9892 C.ar    1  UNL1        0.1812
     24 O          61.8570   89.6447   13.2263 O.3     1  UNL1       -0.4728
     25 C          61.2964   89.7707   11.8407 C.3     1  UNL1        0.2211
     26 C          61.7298   88.8173   10.7668 C.3     1  UNL1        0.0995
     27 N          62.7272   89.2530    9.7348 N.3     1  UNL1       -0.3190
     28 H          62.9049   88.4847    9.0879 H       1  UNL1        0.1189
     29 H          63.5981   89.5187   10.1946 H       1  UNL1        0.1189
     30 C          61.1655   87.4280   10.7249 C.3     1  UNL1        0.0472
     31 C          61.9418   86.3226   10.0726 C.2     1  UNL1       -0.0005
     32 C          62.1183   86.1211    8.5966 C.2     1  UNL1        0.0942
     33 N          62.9634   84.8986    8.3936 N.2     1  UNL1       -0.2482
     34 C          63.3093   84.3446    9.7439 C.2     1  UNL1        0.0631
     35 C          64.1176   83.1524   10.1627 C.3     1  UNL1        0.0717
     36 C          64.2945   82.8404   11.6192 C.2     1  UNL1       -0.0198
     37 C          63.6631   83.7205   12.6569 C.2     1  UNL1       -0.0042
     38 C          62.8548   84.9126   12.2381 C.2     1  UNL1        0.0006
     39 C          62.6779   85.2247   10.7816 C.2     1  UNL1        0.0114
@<TRIPOS>BOND
     1     1     2    1
     2     2     3   ar
     3     3     4   ar
     4     4    19    1
     5    19    20   ar
     6    20    21   ar
     7    21    22   ar
     8    22    23   ar
     9     4     5   ar
    10     5     8    1
    11     8     9   ar
    12     9    10   ar
    13    10    11   ar
    14    11    12   ar
    15    12    13   ar
    16    13    14   ar
    17    14    15    1
    18    14    16   ar
    19    16    17   ar
    20     5     6   ar
    21     6     7   ar
    22     7    24    1
    23    24    25    1
    24    25    26    1
    25    26    27    1
    26    26    30    1
    27    30    31    1
    28    31    32    2
    29    32    33    1
    30    33    34    2
    31    34    35    1
    32    35    36    1
    33    36    37    2
    34    37    38    1
    35    38    39    2
    36     7     2   ar
    37    39    31    1
    38    23    19   ar
    39    17     8   ar
    40    39    34    1
    41    16    11    1
    42    17    18    1
    43    27    28    1
    44    27    29    1
@<TRIPOS>MOLECULE
*****
 39 44 0 0 0
SMALL
GASTEIGER

@<TRIPOS>ATOM
      1 C          61.5859   90.6711   10.4960 C.3     1  UNL1        0.0553
      2 C          61.8838   89.2036   10.5840 C.ar    1  UNL1        0.0931
      3 N          61.6271   88.3141    9.4038 N.ar    1  UNL1       -0.2465
      4 C          61.9250   86.8466    9.4918 C.ar    1  UNL1        0.0856
      5 C          62.4796   86.2687   10.7600 C.ar    1  UNL1        0.0379
      6 C          62.7363   87.1581   11.9402 C.ar    1  UNL1        0.0411
      7 C          62.4384   88.6256   11.8522 C.ar    1  UNL1        0.1521
      8 C          62.7776   84.8011   10.8480 C.ar    1  UNL1        0.0777
      9 C          63.6267   84.1441    9.8005 C.ar    1  UNL1        0.1176
     10 N          63.9246   82.6766    9.8885 N.ar    1  UNL1       -0.2209
     11 C          63.3734   81.8662   11.0241 C.ar    1  UNL1        0.2006
     12 N          63.4967   80.4123   11.3722 N.ar    1  UNL1       -0.1272
     13 N          62.7238   80.1709   12.6348 N.ar    1  UNL1       -0.1493
     14 C          62.1228   81.4755   13.0671 C.ar    1  UNL1        0.0995
     15 C          61.2701   81.6941   14.2816 C.3     1  UNL1        0.0557
     16 C          62.5243   82.5233   12.0715 C.ar    1  UNL1        0.1101
     17 N          62.2264   83.9907   11.9835 N.ar    1  UNL1       -0.3484
     18 H          61.6691   84.4220   12.6710 H       1  UNL1        0.1661
     19 C          61.6683   85.9571    8.3116 C.ar    1  UNL1        0.0584
     20 C          62.7091   85.2317    7.5113 C.ar    1  UNL1        0.0453
     21 C          62.0098   84.4631    6.4295 C.ar    1  UNL1        0.1798
     22 O          60.5367   84.7135    6.5612 O.2     1  UNL1       -0.4473
     23 C          60.3257   85.6369    7.7243 C.ar    1  UNL1        0.1812
     24 O          62.6951   89.5151   13.0324 O.3     1  UNL1       -0.4728
     25 C          63.8402   89.2234   13.9564 C.3     1  UNL1        0.2211
     26 C          63.9228   89.9091   15.2880 C.3     1  UNL1        0.0995
     27 N          63.3420   89.2543   16.5061 N.3     1  UNL1       -0.3190
     28 H          63.4865   89.8559   17.3170 H       1  UNL1        0.1189
     29 H          63.8018   88.3573   16.6619 H       1  UNL1        0.1189
     30 C          64.5864   91.2496   15.4014 C.3     1  UNL1        0.0472
     31 C          65.7813   91.5691   14.5527 C.2     1  UNL1       -0.0005
     32 C          67.2111   91.5664   15.0063 C.2     1  UNL1        0.0942
     33 N          68.0696   91.9431   13.8353 N.2     1  UNL1       -0.2482
     34 C          67.1704   92.1787   12.6581 C.2     1  UNL1        0.0631
     35 C          67.4566   92.5737   11.2396 C.3     1  UNL1        0.0717
     36 C          66.3287   92.7377   10.2646 C.2     1  UNL1       -0.0198
     37 C          64.9144   92.5065   10.7079 C.2     1  UNL1       -0.0042
     38 C          64.6282   92.1115   12.1263 C.2     1  UNL1        0.0006
     39 C          65.7561   91.9475   13.1014 C.2     1  UNL1        0.0114
@<TRIPOS>BOND
     1     1     2    1
     2     2     3   ar
     3     3     4   ar
     4     4    19    1
     5    19    20   ar
     6    20    21   ar
     7    21    22   ar
     8    22    23   ar
     9     4     5   ar
    10     5     8    1
    11     8     9   ar
    12     9    10   ar
    13    10    11   ar
    14    11    12   ar
    15    12    13   ar
    16    13    14   ar
    17    14    15    1
    18    14    16   ar
    19    16    17   ar
    20     5     6   ar
    21     6     7   ar
    22     7    24    1
    23    24    25    1
    24    25    26    1
    25    26    27    1
    26    26    30    1
    27    30    31    1
    28    31    32    2
    29    32    33    1
    30    33    34    2
    31    34    35    1
    32    35    36    1
    33    36    37    2
    34    37    38    1
    35    38    39    2
    36     7     2   ar
    37    39    31    1
    38    23    19   ar
    39    17     8   ar
    40    39    34    1
    41    16    11    1
    42    17    18    1
    43    27    28    1
    44    27    29    1
@<TRIPOS>MOLECULE
*****
 39 44 0 0 0
SMALL
GASTEIGER

@<TRIPOS>ATOM
      1 C          60.9766   90.7116   10.3856 C.3     1  UNL1        0.0553
      2 C          61.3963   89.2753   10.4892 C.ar    1  UNL1        0.0931
      3 N          61.2239   88.3571    9.3157 N.ar    1  UNL1       -0.2465
      4 C          61.6437   86.9207    9.4194 C.ar    1  UNL1        0.0856
      5 C          62.2359   86.4026   10.6964 C.ar    1  UNL1        0.0379
      6 C          62.4083   87.3209   11.8699 C.ar    1  UNL1        0.0411
      7 C          61.9885   88.7572   11.7663 C.ar    1  UNL1        0.1521
      8 C          62.6557   84.9663   10.8001 C.ar    1  UNL1        0.0777
      9 C          63.6154   84.3914    9.8009 C.ar    1  UNL1        0.1176
     10 N          64.0352   82.9551    9.9046 N.ar    1  UNL1       -0.2209
     11 C          63.4951   82.0936   11.0074 C.ar    1  UNL1        0.2006
     12 N          63.7257   80.6542   11.3611 N.ar    1  UNL1       -0.1272
     13 N          62.9085   80.3395   12.5789 N.ar    1  UNL1       -0.1493
     14 C          62.1728   81.5844   12.9778 C.ar    1  UNL1        0.0995
     15 C          61.2385   81.7212   14.1433 C.3     1  UNL1        0.0557
     16 C          62.5354   82.6685   12.0066 C.ar    1  UNL1        0.1101
     17 N          62.1156   84.1048   11.9029 N.ar    1  UNL1       -0.3484
     18 H          61.4857   84.4821   12.5587 H       1  UNL1        0.1661
     19 C          61.4713   86.0024    8.2459 C.ar    1  UNL1        0.0584
     20 C          62.5717   85.3012    7.5059 C.ar    1  UNL1        0.0453
     21 C          61.9487   84.4895    6.4090 C.ar    1  UNL1        0.1798
     22 O          60.4634   84.6891    6.4710 O.2     1  UNL1       -0.4473
     23 C          60.1684   85.6241    7.6063 C.ar    1  UNL1        0.1812
     24 O          62.1609   89.6755   12.9398 O.3     1  UNL1       -0.4728
     25 C          63.3120   90.6364   12.9775 C.3     1  UNL1        0.2211
     26 C          64.2783   90.6047   14.1243 C.3     1  UNL1        0.0995
     27 N          64.6352   91.8738   14.8397 N.3     1  UNL1       -0.3190
     28 H          65.2993   91.6682   15.5861 H       1  UNL1        0.1189
     29 H          63.7926   92.2876   15.2388 H       1  UNL1        0.1189
     30 C          64.8878   89.3037   14.5557 C.3     1  UNL1        0.0472
     31 C          64.1014   88.3537   15.4096 C.2     1  UNL1       -0.0005
     32 C          63.1778   88.7326   16.5293 C.2     1  UNL1        0.0942
     33 N          62.6062   87.4711   17.1055 N.2     1  UNL1       -0.2482
     34 C          63.1764   86.3127   16.3420 C.2     1  UNL1        0.0631
     35 C          62.9735   84.8316   16.4656 C.3     1  UNL1        0.0717
     36 C          63.6948   83.8961   15.5412 C.2     1  UNL1       -0.0198
     37 C          64.6189   84.4416   14.4931 C.2     1  UNL1       -0.0042
     38 C          64.8217   85.9227   14.3695 C.2     1  UNL1        0.0006
     39 C          64.1005   86.8582   15.2939 C.2     1  UNL1        0.0114
@<TRIPOS>BOND
     1     1     2    1
     2     2     3   ar
     3     3     4   ar
     4     4    19    1
     5    19    20   ar
     6    20    21   ar
     7    21    22   ar
     8    22    23   ar
     9     4     5   ar
    10     5     8    1
    11     8     9   ar
    12     9    10   ar
    13    10    11   ar
    14    11    12   ar
    15    12    13   ar
    16    13    14   ar
    17    14    15    1
    18    14    16   ar
    19    16    17   ar
    20     5     6   ar
    21     6     7   ar
    22     7    24    1
    23    24    25    1
    24    25    26    1
    25    26    27    1
    26    26    30    1
    27    30    31    1
    28    31    32    2
    29    32    33    1
    30    33    34    2
    31    34    35    1
    32    35    36    1
    33    36    37    2
    34    37    38    1
    35    38    39    2
    36     7     2   ar
    37    39    31    1
    38    23    19   ar
    39    17     8   ar
    40    39    34    1
    41    16    11    1
    42    17    18    1
    43    27    28    1
    44    27    29    1
@<TRIPOS>MOLECULE
*****
 39 44 0 0 0
SMALL
GASTEIGER

@<TRIPOS>ATOM
      1 C          63.1361   86.0542   18.3107 C.3     1  UNL1        0.0553
      2 C          63.1727   85.7806   16.8363 C.ar    1  UNL1        0.0931
      3 N          62.9063   84.3964   16.3235 N.ar    1  UNL1       -0.2465
      4 C          62.9429   84.1228   14.8491 C.ar    1  UNL1        0.0856
      5 C          63.2459   85.2334   13.8875 C.ar    1  UNL1        0.0379
      6 C          63.5123   86.6176   14.4003 C.ar    1  UNL1        0.0411
      7 C          63.4757   86.8912   15.8746 C.ar    1  UNL1        0.1521
      8 C          63.2825   84.9598   12.4131 C.ar    1  UNL1        0.0777
      9 C          64.2541   83.9599   11.8597 C.ar    1  UNL1        0.1176
     10 N          64.2907   83.6864   10.3854 N.ar    1  UNL1       -0.2209
     11 C          63.3557   84.4127    9.4644 C.ar    1  UNL1        0.2006
     12 N          63.1627   84.3523    7.9780 N.ar    1  UNL1       -0.1272
     13 N          62.0718   85.3149    7.6128 N.ar    1  UNL1       -0.1493
     14 C          61.5907   85.9702    8.8734 C.ar    1  UNL1        0.0995
     15 C          60.5064   87.0020    8.9724 C.3     1  UNL1        0.0557
     16 C          62.3842   85.4126   10.0177 C.ar    1  UNL1        0.1101
     17 N          62.3476   85.6862   11.4921 N.ar    1  UNL1       -0.3484
     18 H          61.7099   86.3425   11.8553 H       1  UNL1        0.1661
     19 C          62.6765   82.7385   14.3363 C.ar    1  UNL1        0.0584
     20 C          61.3309   82.0870   14.2151 C.ar    1  UNL1        0.0453
     21 C          61.5317   80.7086   13.6586 C.ar    1  UNL1        0.1798
     22 O          63.0015   80.5082   13.4359 O.2     1  UNL1       -0.4473
     23 C          63.7090   81.7628   13.8547 C.ar    1  UNL1        0.1812
     24 O          63.7421   88.2755   16.3874 O.3     1  UNL1       -0.4728
     25 C          63.1943   89.4647   15.6556 C.3     1  UNL1        0.2211
     26 C          63.9640   90.7520   15.6342 C.3     1  UNL1        0.0995
     27 N          63.5712   91.8759   16.5466 N.3     1  UNL1       -0.3190
     28 H          64.1973   92.6677   16.3999 H       1  UNL1        0.1189
     29 H          63.6369   91.5656   17.5160 H       1  UNL1        0.1189
     30 C          65.1265   90.9154   14.7004 C.3     1  UNL1        0.0472
     31 C          64.9023   91.4155   13.3041 C.2     1  UNL1       -0.0005
     32 C          65.6044   92.5735   12.6589 C.2     1  UNL1        0.0942
     33 N          65.0726   92.7191   11.2638 N.2     1  UNL1       -0.2482
     34 C          64.0419   91.6511   11.0468 C.2     1  UNL1        0.0631
     35 C          63.1856   91.3081    9.8640 C.3     1  UNL1        0.0717
     36 C          62.2241   90.1595    9.9421 C.2     1  UNL1       -0.0198
     37 C          62.1188   89.3539   11.2030 C.2     1  UNL1       -0.0042
     38 C          62.9751   89.6969   12.3859 C.2     1  UNL1        0.0006
     39 C          63.9366   90.8455   12.3078 C.2     1  UNL1        0.0114
@<TRIPOS>BOND
     1     1     2    1
     2     2     3   ar
     3     3     4   ar
     4     4    19    1
     5    19    20   ar
     6    20    21   ar
     7    21    22   ar
     8    22    23   ar
     9     4     5   ar
    10     5     8    1
    11     8     9   ar
    12     9    10   ar
    13    10    11   ar
    14    11    12   ar
    15    12    13   ar
    16    13    14   ar
    17    14    15    1
    18    14    16   ar
    19    16    17   ar
    20     5     6   ar
    21     6     7   ar
    22     7    24    1
    23    24    25    1
    24    25    26    1
    25    26    27    1
    26    26    30    1
    27    30    31    1
    28    31    32    2
    29    32    33    1
    30    33    34    2
    31    34    35    1
    32    35    36    1
    33    36    37    2
    34    37    38    1
    35    38    39    2
    36     7     2   ar
    37    39    31    1
    38    23    19   ar
    39    17     8   ar
    40    39    34    1
    41    16    11    1
    42    17    18    1
    43    27    28    1
    44    27    29    1
@<TRIPOS>MOLECULE
*****
 39 44 0 0 0
SMALL
GASTEIGER

@<TRIPOS>ATOM
      1 C          60.3961   85.2987    7.6972 C.3     1  UNL1        0.0553
      2 C          61.0102   86.2872    8.6437 C.ar    1  UNL1        0.0931
      3 N          60.1408   87.2718    9.3680 N.ar    1  UNL1       -0.2465
      4 C          60.7550   88.2604   10.3144 C.ar    1  UNL1        0.0856
      5 C          62.2384   88.2642   10.5366 C.ar    1  UNL1        0.0379
      6 C          63.1077   87.2795    9.8123 C.ar    1  UNL1        0.0411
      7 C          62.4937   86.2910    8.8658 C.ar    1  UNL1        0.1521
      8 C          62.8525   89.2527   11.4830 C.ar    1  UNL1        0.0777
      9 C          63.5089   90.4922   10.9512 C.ar    1  UNL1        0.1176
     10 N          64.1230   91.4806   11.8977 N.ar    1  UNL1       -0.2209
     11 C          64.0807   91.2296   13.3759 C.ar    1  UNL1        0.2006
     12 N          64.5976   92.0176   14.5430 N.ar    1  UNL1       -0.1272
     13 N          64.2607   91.2651   15.7960 N.ar    1  UNL1       -0.1493
     14 C          63.5356   90.0120   15.4034 C.ar    1  UNL1        0.0995
     15 C          63.0134   88.9647   16.3417 C.3     1  UNL1        0.0557
     16 C          63.4244   89.9901   13.9077 C.ar    1  UNL1        0.1101
     17 N          62.8103   89.0017   12.9613 N.ar    1  UNL1       -0.3484
     18 H          62.3795   88.1881   13.3103 H       1  UNL1        0.1661
     19 C          59.8856   89.2451   11.0387 C.ar    1  UNL1        0.0584
     20 C          59.7220   90.6961   10.6957 C.ar    1  UNL1        0.0453
     21 C          58.7625   91.2994   11.6782 C.ar    1  UNL1        0.1798
     22 O          58.3330   90.2213   12.6285 O.2     1  UNL1       -0.4473
     23 C          59.0271   88.9516   12.2333 C.ar    1  UNL1        0.1812
     24 O          63.3630   85.3063    8.1415 O.3     1  UNL1       -0.4728
     25 C          63.4230   83.8794    8.6001 C.3     1  UNL1        0.2211
     26 C          63.6070   83.5665   10.0555 C.3     1  UNL1        0.0995
     27 N          64.9679   83.2185   10.5816 N.3     1  UNL1       -0.3190
     28 H          64.9089   83.0368   11.5836 H       1  UNL1        0.1189
     29 H          65.6063   83.9963   10.4142 H       1  UNL1        0.1189
     30 C          62.4301   83.6016   10.9849 C.3     1  UNL1        0.0472
     31 C          62.6120   83.2773   12.4381 C.2     1  UNL1       -0.0005
     32 C          62.2416   81.9865   13.1065 C.2     1  UNL1        0.0942
     33 N          62.5970   82.0984   14.5595 N.2     1  UNL1       -0.2482
     34 C          63.1869   83.4582   14.7891 C.2     1  UNL1        0.0631
     35 C          63.7169   84.1272   16.0227 C.3     1  UNL1        0.0717
     36 C          64.2562   85.5247   15.9451 C.2     1  UNL1       -0.0198
     37 C          64.2654   86.2533   14.6339 C.2     1  UNL1       -0.0042
     38 C          63.7355   85.5844   13.4004 C.2     1  UNL1        0.0006
     39 C          63.1962   84.1868   13.4780 C.2     1  UNL1        0.0114
@<TRIPOS>BOND
     1     1     2    1
     2     2     3   ar
     3     3     4   ar
     4     4    19    1
     5    19    20   ar
     6    20    21   ar
     7    21    22   ar
     8    22    23   ar
     9     4     5   ar
    10     5     8    1
    11     8     9   ar
    12     9    10   ar
    13    10    11   ar
    14    11    12   ar
    15    12    13   ar
    16    13    14   ar
    17    14    15    1
    18    14    16   ar
    19    16    17   ar
    20     5     6   ar
    21     6     7   ar
    22     7    24    1
    23    24    25    1
    24    25    26    1
    25    26    27    1
    26    26    30    1
    27    30    31    1
    28    31    32    2
    29    32    33    1
    30    33    34    2
    31    34    35    1
    32    35    36    1
    33    36    37    2
    34    37    38    1
    35    38    39    2
    36     7     2   ar
    37    39    31    1
    38    23    19   ar
    39    17     8   ar
    40    39    34    1
    41    16    11    1
    42    17    18    1
    43    27    28    1
    44    27    29    1
