@<TRIPOS>MOLECULE
*****
 18 20 0 0 0
SMALL
GASTEIGER

@<TRIPOS>ATOM
      1 C          66.1034   93.9831   12.0074 C.3     1  UNL1        0.1200
      2 N          65.6104   92.8036   12.7920 N.am    1  UNL1       -0.2572
      3 C          66.0540   92.6086   14.2115 C.2     1  UNL1        0.2297
      4 O          66.9908   93.5932   14.8465 O.2     1  UNL1       -0.2745
      5 C          65.5610   91.4290   14.9961 C.3     1  UNL1        0.0903
      6 C          64.6244   90.4444   14.3611 C.3     1  UNL1        0.0372
      7 C          64.1806   90.6394   12.9415 C.ar    1  UNL1       -0.0080
      8 C          63.2440   89.6548   12.3066 C.ar    1  UNL1       -0.0030
      9 C          62.8003   89.8498   10.8871 C.ar    1  UNL1        0.0013
     10 C          63.2933   91.0294   10.1025 C.ar    1  UNL1        0.0013
     11 C          64.2300   92.0140   10.7375 C.ar    1  UNL1        0.0146
     12 C          64.6736   91.8190   12.1570 C.ar    1  UNL1        0.0499
     13 C          61.8636   88.8652   10.2521 C.ar    1  UNL1        0.0192
     14 C          62.0289   87.3973   10.5126 C.ar    1  UNL1        0.0031
     15 C          61.0922   86.4127    9.8777 C.ar    1  UNL1        0.0207
     16 C          59.9902   86.8960    8.9821 C.ar    1  UNL1        0.0989
     17 N          59.8249   88.3639    8.7215 N.ar    1  UNL1       -0.2423
     18 C          60.7616   89.3485    9.3565 C.ar    1  UNL1        0.0988
@<TRIPOS>BOND
     1     1     2    1
     2     2     3   am
     3     3     4    2
     4     3     5    1
     5     5     6    1
     6     6     7    1
     7     7     8   ar
     8     8     9   ar
     9     9    13    1
    10    13    14   ar
    11    14    15   ar
    12    15    16   ar
    13    16    17   ar
    14    17    18   ar
    15     9    10   ar
    16    10    11   ar
    17    11    12   ar
    18    12     2    1
    19    12     7   ar
    20    18    13   ar
@<TRIPOS>MOLECULE
*****
 18 20 0 0 0
SMALL
GASTEIGER

@<TRIPOS>ATOM
      1 C          65.5619   91.5386   14.8728 C.3     1  UNL1        0.1200
      2 N          65.3393   91.9569   13.4496 N.am    1  UNL1       -0.2572
      3 C          66.0197   93.1810   12.9125 C.2     1  UNL1        0.2297
      4 O          66.9228   93.9869   13.7985 O.2     1  UNL1       -0.2745
      5 C          65.7971   93.5993   11.4893 C.3     1  UNL1        0.0903
      6 C          64.8940   92.7935   10.6032 C.3     1  UNL1        0.0372
      7 C          64.2135   91.5694   11.1403 C.ar    1  UNL1       -0.0080
      8 C          63.3105   90.7636   10.2542 C.ar    1  UNL1       -0.0030
      9 C          62.6301   89.5395   10.7914 C.ar    1  UNL1        0.0013
     10 C          62.8527   89.1212   12.2145 C.ar    1  UNL1        0.0013
     11 C          63.7557   89.9269   13.1006 C.ar    1  UNL1        0.0146
     12 C          64.4362   91.1510   12.5635 C.ar    1  UNL1        0.0499
     13 C          61.7270   88.7336    9.9053 C.ar    1  UNL1        0.0192
     14 C          61.9991   87.2751    9.6848 C.ar    1  UNL1        0.0031
     15 C          61.0961   86.4692    8.7987 C.ar    1  UNL1        0.0207
     16 C          59.9208   87.1219    8.1332 C.ar    1  UNL1        0.0989
     17 N          59.6487   88.5804    8.3537 N.ar    1  UNL1       -0.2423
     18 C          60.5518   89.3863    9.2398 C.ar    1  UNL1        0.0988
@<TRIPOS>BOND
     1     1     2    1
     2     2     3   am
     3     3     4    2
     4     3     5    1
     5     5     6    1
     6     6     7    1
     7     7     8   ar
     8     8     9   ar
     9     9    13    1
    10    13    14   ar
    11    14    15   ar
    12    15    16   ar
    13    16    17   ar
    14    17    18   ar
    15     9    10   ar
    16    10    11   ar
    17    11    12   ar
    18    12     2    1
    19    12     7   ar
    20    18    13   ar
@<TRIPOS>MOLECULE
*****
 18 20 0 0 0
SMALL
GASTEIGER

@<TRIPOS>ATOM
      1 C          62.6020   90.0878   11.0041 C.3     1  UNL1        0.1200
      2 N          63.2174   89.4224   12.1992 N.am    1  UNL1       -0.2572
      3 C          63.9316   90.2448   13.2305 C.2     1  UNL1        0.2297
      4 O          64.0304   91.7326   13.0667 O.2     1  UNL1       -0.2745
      5 C          64.5471   89.5795   14.4257 C.3     1  UNL1        0.0903
      6 C          64.4484   88.0917   14.5896 C.3     1  UNL1        0.0372
      7 C          63.7342   87.2693   13.5583 C.ar    1  UNL1       -0.0080
      8 C          63.6355   85.7816   13.7222 C.ar    1  UNL1       -0.0030
      9 C          62.9213   84.9592   12.6909 C.ar    1  UNL1        0.0013
     10 C          62.3058   85.6246   11.4957 C.ar    1  UNL1        0.0013
     11 C          62.4045   87.1123   11.3318 C.ar    1  UNL1        0.0146
     12 C          63.1187   87.9346   12.3631 C.ar    1  UNL1        0.0499
     13 C          62.8226   83.4714   12.8548 C.ar    1  UNL1        0.0192
     14 C          62.9794   82.5736   11.6634 C.ar    1  UNL1        0.0031
     15 C          62.8806   81.0859   11.8272 C.ar    1  UNL1        0.0207
     16 C          62.6251   80.4959   13.1825 C.ar    1  UNL1        0.0989
     17 N          62.4683   81.3937   14.3739 N.ar    1  UNL1       -0.2423
     18 C          62.5670   82.8815   14.2100 C.ar    1  UNL1        0.0988
@<TRIPOS>BOND
     1     1     2    1
     2     2     3   am
     3     3     4    2
     4     3     5    1
     5     5     6    1
     6     6     7    1
     7     7     8   ar
     8     8     9   ar
     9     9    13    1
    10    13    14   ar
    11    14    15   ar
    12    15    16   ar
    13    16    17   ar
    14    17    18   ar
    15     9    10   ar
    16    10    11   ar
    17    11    12   ar
    18    12     2    1
    19    12     7   ar
    20    18    13   ar
@<TRIPOS>MOLECULE
*****
 18 20 0 0 0
SMALL
GASTEIGER

@<TRIPOS>ATOM
      1 C          59.6393   88.8574    7.7122 C.3     1  UNL1        0.1200
      2 N          60.4536   88.0143    8.6483 N.am    1  UNL1       -0.2572
      3 C          60.4594   86.5216    8.5007 C.2     1  UNL1        0.2297
      4 O          59.6508   85.8719    7.4171 O.2     1  UNL1       -0.2745
      5 C          61.2737   85.6785    9.4367 C.3     1  UNL1        0.0903
      6 C          62.0822   86.3281   10.5203 C.3     1  UNL1        0.0372
      7 C          62.0765   87.8209   10.6679 C.ar    1  UNL1       -0.0080
      8 C          62.8851   88.4705   11.7515 C.ar    1  UNL1       -0.0030
      9 C          62.8794   89.9632   11.8990 C.ar    1  UNL1        0.0013
     10 C          62.0651   90.8062   10.9630 C.ar    1  UNL1        0.0013
     11 C          61.2565   90.1566    9.8794 C.ar    1  UNL1        0.0146
     12 C          61.2622   88.6640    9.7319 C.ar    1  UNL1        0.0499
     13 C          63.6880   90.6128   12.9827 C.ar    1  UNL1        0.0192
     14 C          63.5286   90.1682   14.4064 C.ar    1  UNL1        0.0031
     15 C          64.3371   90.8179   15.4900 C.ar    1  UNL1        0.0207
     16 C          65.3051   91.9121   15.1499 C.ar    1  UNL1        0.0989
     17 N          65.4646   92.3567   13.7262 N.ar    1  UNL1       -0.2423
     18 C          64.6560   91.7070   12.6426 C.ar    1  UNL1        0.0988
@<TRIPOS>BOND
     1     1     2    1
     2     2     3   am
     3     3     4    2
     4     3     5    1
     5     5     6    1
     6     6     7    1
     7     7     8   ar
     8     8     9   ar
     9     9    13    1
    10    13    14   ar
    11    14    15   ar
    12    15    16   ar
    13    16    17   ar
    14    17    18   ar
    15     9    10   ar
    16    10    11   ar
    17    11    12   ar
    18    12     2    1
    19    12     7   ar
    20    18    13   ar
@<TRIPOS>MOLECULE
*****
 18 20 0 0 0
SMALL
GASTEIGER

@<TRIPOS>ATOM
      1 C          64.8870   92.9641   10.5013 C.3     1  UNL1        0.1200
      2 N          65.3789   92.8977   11.9168 N.am    1  UNL1       -0.2572
      3 C          66.2578   93.9864   12.4573 C.2     1  UNL1        0.2297
      4 O          66.6448   95.1417   11.5822 O.2     1  UNL1       -0.2745
      5 C          66.7496   93.9200   13.8728 C.3     1  UNL1        0.0903
      6 C          66.3626   92.7648   14.7479 C.3     1  UNL1        0.0372
      7 C          65.4837   91.6760   14.2074 C.ar    1  UNL1       -0.0080
      8 C          65.0967   90.5208   15.0824 C.ar    1  UNL1       -0.0030
      9 C          64.2179   89.4320   14.5420 C.ar    1  UNL1        0.0013
     10 C          63.7260   89.4985   13.1265 C.ar    1  UNL1        0.0013
     11 C          64.1130   90.6536   12.2514 C.ar    1  UNL1        0.0146
     12 C          64.9918   91.7424   12.7919 C.ar    1  UNL1        0.0499
     13 C          63.8308   88.2768   15.4170 C.ar    1  UNL1        0.0192
     14 C          63.1167   88.5237   16.7128 C.ar    1  UNL1        0.0031
     15 C          62.7297   87.3685   17.5879 C.ar    1  UNL1        0.0207
     16 C          63.0567   85.9663   17.1671 C.ar    1  UNL1        0.0989
     17 N          63.7708   85.7194   15.8713 N.ar    1  UNL1       -0.2423
     18 C          64.1579   86.8747   14.9963 C.ar    1  UNL1        0.0988
@<TRIPOS>BOND
     1     1     2    1
     2     2     3   am
     3     3     4    2
     4     3     5    1
     5     5     6    1
     6     6     7    1
     7     7     8   ar
     8     8     9   ar
     9     9    13    1
    10    13    14   ar
    11    14    15   ar
    12    15    16   ar
    13    16    17   ar
    14    17    18   ar
    15     9    10   ar
    16    10    11   ar
    17    11    12   ar
    18    12     2    1
    19    12     7   ar
    20    18    13   ar
@<TRIPOS>MOLECULE
*****
 18 20 0 0 0
SMALL
GASTEIGER

@<TRIPOS>ATOM
      1 C          64.5110   89.8967   14.0698 C.3     1  UNL1        0.1200
      2 N          63.7423   89.2280   12.9689 N.am    1  UNL1       -0.2572
      3 C          63.1852   90.0441   11.8404 C.2     1  UNL1        0.2297
      4 O          63.3967   91.5289   11.8128 O.2     1  UNL1       -0.2745
      5 C          62.4165   89.3755   10.7394 C.3     1  UNL1        0.0903
      6 C          62.2050   87.8908   10.7670 C.3     1  UNL1        0.0372
      7 C          62.7622   87.0746   11.8955 C.ar    1  UNL1       -0.0080
      8 C          62.5507   85.5899   11.9230 C.ar    1  UNL1       -0.0030
      9 C          63.1078   84.7738   13.0515 C.ar    1  UNL1        0.0013
     10 C          63.8765   85.4424   14.1524 C.ar    1  UNL1        0.0013
     11 C          64.0880   86.9271   14.1249 C.ar    1  UNL1        0.0146
     12 C          63.5308   87.7432   12.9964 C.ar    1  UNL1        0.0499
     13 C          62.8963   83.2890   13.0791 C.ar    1  UNL1        0.0192
     14 C          63.0013   82.4928   11.8121 C.ar    1  UNL1        0.0031
     15 C          62.7898   81.0081   11.8397 C.ar    1  UNL1        0.0207
     16 C          62.4733   80.3194   13.1342 C.ar    1  UNL1        0.0989
     17 N          62.3683   81.1156   14.4011 N.ar    1  UNL1       -0.2423
     18 C          62.5798   82.6004   14.3735 C.ar    1  UNL1        0.0988
@<TRIPOS>BOND
     1     1     2    1
     2     2     3   am
     3     3     4    2
     4     3     5    1
     5     5     6    1
     6     6     7    1
     7     7     8   ar
     8     8     9   ar
     9     9    13    1
    10    13    14   ar
    11    14    15   ar
    12    15    16   ar
    13    16    17   ar
    14    17    18   ar
    15     9    10   ar
    16    10    11   ar
    17    11    12   ar
    18    12     2    1
    19    12     7   ar
    20    18    13   ar
@<TRIPOS>MOLECULE
*****
 18 20 0 0 0
SMALL
GASTEIGER

@<TRIPOS>ATOM
      1 C          62.2405   84.9292   10.8140 C.3     1  UNL1        0.1200
      2 N          62.9548   84.8992   12.1326 N.am    1  UNL1       -0.2572
      3 C          63.2825   83.5857   12.7784 C.2     1  UNL1        0.2297
      4 O          62.8959   82.3020   12.1056 O.2     1  UNL1       -0.2745
      5 C          63.9968   83.5557   14.0971 C.3     1  UNL1        0.0903
      6 C          64.3835   84.8393   14.7699 C.3     1  UNL1        0.0372
      7 C          64.0558   86.1530   14.1242 C.ar    1  UNL1       -0.0080
      8 C          64.4424   87.4366   14.7970 C.ar    1  UNL1       -0.0030
      9 C          64.1147   88.7502   14.1512 C.ar    1  UNL1        0.0013
     10 C          63.4004   88.7801   12.8326 C.ar    1  UNL1        0.0013
     11 C          63.0138   87.4965   12.1597 C.ar    1  UNL1        0.0146
     12 C          63.3415   86.1830   12.8055 C.ar    1  UNL1        0.0499
     13 C          64.5014   90.0339   14.8241 C.ar    1  UNL1        0.0192
     14 C          65.7500   90.7529   14.4068 C.ar    1  UNL1        0.0031
     15 C          66.1366   92.0366   15.0796 C.ar    1  UNL1        0.0207
     16 C          65.2747   92.6013   16.1698 C.ar    1  UNL1        0.0989
     17 N          64.0261   91.8823   16.5870 N.ar    1  UNL1       -0.2423
     18 C          63.6395   90.5985   15.9141 C.ar    1  UNL1        0.0988
@<TRIPOS>BOND
     1     1     2    1
     2     2     3   am
     3     3     4    2
     4     3     5    1
     5     5     6    1
     6     6     7    1
     7     7     8   ar
     8     8     9   ar
     9     9    13    1
    10    13    14   ar
    11    14    15   ar
    12    15    16   ar
    13    16    17   ar
    14    17    18   ar
    15     9    10   ar
    16    10    11   ar
    17    11    12   ar
    18    12     2    1
    19    12     7   ar
    20    18    13   ar
@<TRIPOS>MOLECULE
*****
 18 20 0 0 0
SMALL
GASTEIGER

@<TRIPOS>ATOM
      1 C          62.0654   85.4058   11.3701 C.3     1  UNL1        0.1200
      2 N          62.0363   86.8653   11.0252 N.am    1  UNL1       -0.2572
      3 C          61.2924   87.3340    9.8099 C.2     1  UNL1        0.2297
      4 O          60.5776   86.3432    8.9396 O.2     1  UNL1       -0.2745
      5 C          61.2632   88.7935    9.4650 C.3     1  UNL1        0.0903
      6 C          61.9780   89.7843   10.3353 C.3     1  UNL1        0.0372
      7 C          62.7220   89.3156   11.5506 C.ar    1  UNL1       -0.0080
      8 C          63.4367   90.3063   12.4209 C.ar    1  UNL1       -0.0030
      9 C          64.1806   89.8376   13.6361 C.ar    1  UNL1        0.0013
     10 C          64.2098   88.3781   13.9810 C.ar    1  UNL1        0.0013
     11 C          63.4950   87.3873   13.1108 C.ar    1  UNL1        0.0146
     12 C          62.7511   87.8561   11.8955 C.ar    1  UNL1        0.0499
     13 C          64.8954   90.8284   14.5065 C.ar    1  UNL1        0.0192
     14 C          66.2927   91.2548   14.1661 C.ar    1  UNL1        0.0031
     15 C          67.0075   92.2455   15.0364 C.ar    1  UNL1        0.0207
     16 C          66.3251   92.8099   16.2472 C.ar    1  UNL1        0.0989
     17 N          64.9278   92.3834   16.5876 N.ar    1  UNL1       -0.2423
     18 C          64.2130   91.3926   15.7172 C.ar    1  UNL1        0.0988
@<TRIPOS>BOND
     1     1     2    1
     2     2     3   am
     3     3     4    2
     4     3     5    1
     5     5     6    1
     6     6     7    1
     7     7     8   ar
     8     8     9   ar
     9     9    13    1
    10    13    14   ar
    11    14    15   ar
    12    15    16   ar
    13    16    17   ar
    14    17    18   ar
    15     9    10   ar
    16    10    11   ar
    17    11    12   ar
    18    12     2    1
    19    12     7   ar
    20    18    13   ar
@<TRIPOS>MOLECULE
*****
 18 20 0 0 0
SMALL
GASTEIGER

@<TRIPOS>ATOM
      1 C          64.7904   85.7399   14.9950 C.3     1  UNL1        0.1200
      2 N          64.0430   84.8551   14.0419 N.am    1  UNL1       -0.2572
      3 C          64.0816   83.3656   14.2140 C.2     1  UNL1        0.2297
      4 O          64.8677   82.7607   15.3393 O.2     1  UNL1       -0.2745
      5 C          63.3341   82.4808   13.2609 C.3     1  UNL1        0.0903
      6 C          62.5481   83.0856   12.1356 C.3     1  UNL1        0.0372
      7 C          62.5094   84.5752   11.9634 C.ar    1  UNL1       -0.0080
      8 C          61.7234   85.1800   10.8381 C.ar    1  UNL1       -0.0030
      9 C          61.6848   86.6696   10.6660 C.ar    1  UNL1        0.0013
     10 C          62.4322   87.5544   11.6191 C.ar    1  UNL1        0.0013
     11 C          63.2183   86.9496   12.7444 C.ar    1  UNL1        0.0146
     12 C          63.2569   85.4600   12.9166 C.ar    1  UNL1        0.0499
     13 C          60.8987   87.2744    9.5407 C.ar    1  UNL1        0.0192
     14 C          60.1057   86.3935    8.6214 C.ar    1  UNL1        0.0031
     15 C          59.3197   86.9983    7.4961 C.ar    1  UNL1        0.0207
     16 C          59.3265   88.4841    7.2901 C.ar    1  UNL1        0.0989
     17 N          60.1195   89.3650    8.2094 N.ar    1  UNL1       -0.2423
     18 C          60.9056   88.7602    9.3347 C.ar    1  UNL1        0.0988
@<TRIPOS>BOND
     1     1     2    1
     2     2     3   am
     3     3     4    2
     4     3     5    1
     5     5     6    1
     6     6     7    1
     7     7     8   ar
     8     8     9   ar
     9     9    13    1
    10    13    14   ar
    11    14    15   ar
    12    15    16   ar
    13    16    17   ar
    14    17    18   ar
    15     9    10   ar
    16    10    11   ar
    17    11    12   ar
    18    12     2    1
    19    12     7   ar
    20    18    13   ar
