@<TRIPOS>MOLECULE
*****
 27 29 0 0 0
SMALL
GASTEIGER

@<TRIPOS>ATOM
      1 C          65.6377   92.5117   12.8870 C.ar    1  UNL1        0.0423
      2 C          64.9823   91.4582   13.7299 C.ar    1  UNL1        0.1257
      3 N          65.3393   91.3292   15.1811 N.pl3   1  UNL1       -0.3428
      4 N          63.9698   90.5335   13.1216 N.ar    1  UNL1       -0.2126
      5 C          63.6128   90.6625   11.6704 C.ar    1  UNL1        0.1635
      6 N          64.2682   91.7160   10.8276 N.ar    1  UNL1       -0.2267
      7 C          65.2807   92.6406   11.4359 C.ar    1  UNL1        0.0837
      8 H          66.0038   91.9360   15.5804 H       1  UNL1        0.1437
      9 H          64.9090   90.6377   15.7343 H       1  UNL1        0.1437
     10 C          65.9362   93.6942   10.5930 C.ar    1  UNL1        0.0282
     11 C          65.3327   95.0644   10.5016 C.ar    1  UNL1        0.0032
     12 C          65.9880   96.1179    9.6588 C.ar    1  UNL1        0.0115
     13 C          67.2470   95.8013    8.9072 C.ar    1  UNL1        0.0585
     14 CL         67.9024   96.8548    8.0643 Cl      1  UNL1       -0.0822
     15 C          67.8505   94.4311    8.9985 C.ar    1  UNL1        0.0228
     16 C          67.1950   93.3775    9.8414 C.ar    1  UNL1        0.0599
     17 CL         67.7985   92.0073    9.9327 Cl      1  UNL1       -0.0822
     18 C          62.6004   89.7378   11.0621 C.ar    1  UNL1        0.0358
     19 C          61.5971   90.2658   10.0800 C.ar    1  UNL1        0.0030
     20 C          60.5846   89.3412    9.4717 C.ar    1  UNL1        0.0001
     21 C          60.5754   87.8886    9.8455 C.ar    1  UNL1        0.0000
     22 C          61.5787   87.3606   10.8276 C.ar    1  UNL1        0.0001
     23 C          62.5912   88.2852   11.4359 C.ar    1  UNL1        0.0030
     24 N          67.9486   92.8913   14.0120 N.3     1  UNL1       -0.3173
     25 C          66.6502   93.4363   13.4953 C.3     1  UNL1        0.0965
     26 H          68.5118   93.6540   14.3882 H       1  UNL1        0.1192
     27 H          68.4544   92.4386   13.2507 H       1  UNL1        0.1192
@<TRIPOS>BOND
     1    24    25    1
     2    25     1    1
     3     1     2   ar
     4     2     3    1
     5     2     4   ar
     6     4     5   ar
     7     5    18    1
     8    18    19   ar
     9    19    20   ar
    10    20    21   ar
    11    21    22   ar
    12    22    23   ar
    13     5     6   ar
    14     6     7   ar
    15     7    10    1
    16    10    11   ar
    17    11    12   ar
    18    12    13   ar
    19    13    14    1
    20    13    15   ar
    21    15    16   ar
    22    16    17    1
    23     7     1   ar
    24    16    10   ar
    25    23    18   ar
    26    24    26    1
    27    24    27    1
    28     3     8    1
    29     3     9    1
@<TRIPOS>MOLECULE
*****
 27 29 0 0 0
SMALL
GASTEIGER

@<TRIPOS>ATOM
      1 C          63.3184   86.0301   13.1009 C.ar    1  UNL1        0.0423
      2 C          63.2663   87.4922   12.7703 C.ar    1  UNL1        0.1257
      3 N          64.0336   88.4770   13.6020 N.pl3   1  UNL1       -0.3428
      4 N          62.4471   87.9697   11.6081 N.ar    1  UNL1       -0.2126
      5 C          61.6799   86.9851   10.7763 C.ar    1  UNL1        0.1635
      6 N          61.7319   85.5229   11.1069 N.ar    1  UNL1       -0.2267
      7 C          62.5512   85.0454   12.2692 C.ar    1  UNL1        0.0837
      8 H          64.5713   88.1636   14.3649 H       1  UNL1        0.1437
      9 H          63.9994   89.4367   13.3851 H       1  UNL1        0.1437
     10 C          62.6032   83.5831   12.5997 C.ar    1  UNL1        0.0282
     11 C          62.0394   83.0873   13.8983 C.ar    1  UNL1        0.0032
     12 C          62.0914   81.6251   14.2288 C.ar    1  UNL1        0.0115
     13 C          62.7072   80.6587   13.2608 C.ar    1  UNL1        0.0585
     14 CL         62.7591   79.1965   13.5913 Cl      1  UNL1       -0.0822
     15 C          63.2709   81.1546   11.9622 C.ar    1  UNL1        0.0228
     16 C          63.2189   82.6168   11.6317 C.ar    1  UNL1        0.0599
     17 CL         63.7826   83.1127   10.3331 Cl      1  UNL1       -0.0822
     18 C          60.8607   87.4626    9.6141 C.ar    1  UNL1        0.0358
     19 C          60.7696   88.9291    9.3129 C.ar    1  UNL1        0.0030
     20 C          59.9504   89.4066    8.1506 C.ar    1  UNL1        0.0001
     21 C          59.2222   88.4176    7.2896 C.ar    1  UNL1        0.0000
     22 C          59.3132   86.9510    7.5908 C.ar    1  UNL1        0.0001
     23 C          60.1325   86.4735    8.7531 C.ar    1  UNL1        0.0030
     24 N          63.8111   86.0163   15.6517 N.3     1  UNL1       -0.3173
     25 C          64.1376   85.5526   14.2631 C.3     1  UNL1        0.0965
     26 H          64.4644   85.5962   16.3129 H       1  UNL1        0.1192
     27 H          62.8596   85.7355   15.8890 H       1  UNL1        0.1192
@<TRIPOS>BOND
     1    24    25    1
     2    25     1    1
     3     1     2   ar
     4     2     3    1
     5     2     4   ar
     6     4     5   ar
     7     5    18    1
     8    18    19   ar
     9    19    20   ar
    10    20    21   ar
    11    21    22   ar
    12    22    23   ar
    13     5     6   ar
    14     6     7   ar
    15     7    10    1
    16    10    11   ar
    17    11    12   ar
    18    12    13   ar
    19    13    14    1
    20    13    15   ar
    21    15    16   ar
    22    16    17    1
    23     7     1   ar
    24    16    10   ar
    25    23    18   ar
    26    24    26    1
    27    24    27    1
    28     3     8    1
    29     3     9    1
@<TRIPOS>MOLECULE
*****
 27 29 0 0 0
SMALL
GASTEIGER

@<TRIPOS>ATOM
      1 C          61.3796   89.0824   11.3937 C.ar    1  UNL1        0.0423
      2 C          60.5032   87.9140   11.0519 C.ar    1  UNL1        0.1257
      3 N          59.1249   88.1444   10.5067 N.pl3   1  UNL1       -0.3428
      4 N          61.0051   86.5151   11.2554 N.ar    1  UNL1       -0.2126
      5 C          62.3834   86.2847   11.8006 C.ar    1  UNL1        0.1635
      6 N          63.2597   87.4531   12.1423 N.ar    1  UNL1       -0.2267
      7 C          62.7578   88.8519   11.9389 C.ar    1  UNL1        0.0837
      8 H          58.7954   89.0625   10.3732 H       1  UNL1        0.1437
      9 H          58.5497   87.3775   10.2824 H       1  UNL1        0.1437
     10 C          63.6342   90.0203   12.2807 C.ar    1  UNL1        0.0282
     11 C          63.9442   91.0551   11.2399 C.ar    1  UNL1        0.0032
     12 C          64.8206   92.2235   11.5816 C.ar    1  UNL1        0.0115
     13 C          65.3871   92.3571   12.9641 C.ar    1  UNL1        0.0585
     14 CL         66.2634   93.5255   13.3059 Cl      1  UNL1       -0.0822
     15 C          65.0771   91.3224   14.0049 C.ar    1  UNL1        0.0228
     16 C          64.2007   90.1539   13.6631 C.ar    1  UNL1        0.0599
     17 CL         63.8907   89.1192   14.7039 Cl      1  UNL1       -0.0822
     18 C          62.8853   84.8859   12.0040 C.ar    1  UNL1        0.0358
     19 C          62.9370   84.3009   13.3842 C.ar    1  UNL1        0.0030
     20 C          63.4389   82.9021   13.5877 C.ar    1  UNL1        0.0001
     21 C          63.8891   82.0882   12.4109 C.ar    1  UNL1        0.0000
     22 C          63.8374   82.6732   11.0307 C.ar    1  UNL1        0.0001
     23 C          63.3355   84.0720   10.8272 C.ar    1  UNL1        0.0030
     24 N          59.4889   90.8498   11.6209 N.3     1  UNL1       -0.3173
     25 C          60.8777   90.4812   11.1903 C.3     1  UNL1        0.0965
     26 H          59.3167   91.8324   11.4085 H       1  UNL1        0.1192
     27 H          59.3924   90.6969   12.6248 H       1  UNL1        0.1192
@<TRIPOS>BOND
     1    24    25    1
     2    25     1    1
     3     1     2   ar
     4     2     3    1
     5     2     4   ar
     6     4     5   ar
     7     5    18    1
     8    18    19   ar
     9    19    20   ar
    10    20    21   ar
    11    21    22   ar
    12    22    23   ar
    13     5     6   ar
    14     6     7   ar
    15     7    10    1
    16    10    11   ar
    17    11    12   ar
    18    12    13   ar
    19    13    14    1
    20    13    15   ar
    21    15    16   ar
    22    16    17    1
    23     7     1   ar
    24    16    10   ar
    25    23    18   ar
    26    24    26    1
    27    24    27    1
    28     3     8    1
    29     3     9    1
@<TRIPOS>MOLECULE
*****
 27 29 0 0 0
SMALL
GASTEIGER

@<TRIPOS>ATOM
      1 C          61.1866   88.0883   10.7100 C.ar    1  UNL1        0.0423
      2 C          61.0012   89.5767   10.7051 C.ar    1  UNL1        0.1257
      3 N          59.8311   90.1845    9.9899 N.pl3   1  UNL1       -0.3428
      4 N          61.9860   90.4575   11.4153 N.ar    1  UNL1       -0.2126
      5 C          63.1561   89.8498   12.1305 C.ar    1  UNL1        0.1635
      6 N          63.3415   88.3613   12.1354 N.ar    1  UNL1       -0.2267
      7 C          62.3567   87.4806   11.4252 C.ar    1  UNL1        0.0837
      8 H          59.1847   89.6064    9.5238 H       1  UNL1        0.1437
      9 H          59.7094   91.1614    9.9867 H       1  UNL1        0.1437
     10 C          62.5421   85.9920   11.4301 C.ar    1  UNL1        0.0282
     11 C          62.4130   85.2244   12.7123 C.ar    1  UNL1        0.0032
     12 C          62.5983   83.7360   12.7173 C.ar    1  UNL1        0.0115
     13 C          62.9129   83.0150   11.4400 C.ar    1  UNL1        0.0585
     14 CL         63.0982   81.5266   11.4450 Cl      1  UNL1       -0.0822
     15 C          63.0420   83.7826   10.1578 C.ar    1  UNL1        0.0228
     16 C          62.8566   85.2712   10.1529 C.ar    1  UNL1        0.0599
     17 CL         62.9857   86.0388    8.8706 Cl      1  UNL1       -0.0822
     18 C          64.1409   90.7306   12.8407 C.ar    1  UNL1        0.0358
     19 C          64.5009   90.4528   14.2701 C.ar    1  UNL1        0.0030
     20 C          65.4857   91.3336   14.9803 C.ar    1  UNL1        0.0001
     21 C          66.1105   92.4921   14.2612 C.ar    1  UNL1        0.0000
     22 C          65.7505   92.7699   12.8318 C.ar    1  UNL1        0.0001
     23 C          64.7658   91.8892   12.1216 C.ar    1  UNL1        0.0030
     24 N          59.8126   87.5080    8.5827 N.3     1  UNL1       -0.3173
     25 C          60.2018   87.2075    9.9998 C.3     1  UNL1        0.0965
     26 H          59.1394   86.8129    8.2603 H       1  UNL1        0.1192
     27 H          60.6416   87.4795    7.9891 H       1  UNL1        0.1192
@<TRIPOS>BOND
     1    24    25    1
     2    25     1    1
     3     1     2   ar
     4     2     3    1
     5     2     4   ar
     6     4     5   ar
     7     5    18    1
     8    18    19   ar
     9    19    20   ar
    10    20    21   ar
    11    21    22   ar
    12    22    23   ar
    13     5     6   ar
    14     6     7   ar
    15     7    10    1
    16    10    11   ar
    17    11    12   ar
    18    12    13   ar
    19    13    14    1
    20    13    15   ar
    21    15    16   ar
    22    16    17    1
    23     7     1   ar
    24    16    10   ar
    25    23    18   ar
    26    24    26    1
    27    24    27    1
    28     3     8    1
    29     3     9    1
@<TRIPOS>MOLECULE
*****
 27 29 0 0 0
SMALL
GASTEIGER

@<TRIPOS>ATOM
      1 C          62.6047   89.4525   11.6579 C.ar    1  UNL1        0.0423
      2 C          61.8686   88.4448   10.8256 C.ar    1  UNL1        0.1257
      3 N          61.0267   88.8981    9.6697 N.pl3   1  UNL1       -0.3428
      4 N          61.9743   86.9839   11.1491 N.ar    1  UNL1       -0.2126
      5 C          62.8161   86.5307   12.3049 C.ar    1  UNL1        0.1635
      6 N          63.5521   87.5383   13.1372 N.ar    1  UNL1       -0.2267
      7 C          63.4464   88.9992   12.8137 C.ar    1  UNL1        0.0837
      8 H          60.9573   89.8569    9.4574 H       1  UNL1        0.1437
      9 H          60.5436   88.2367    9.1234 H       1  UNL1        0.1437
     10 C          64.1826   90.0069   13.6461 C.ar    1  UNL1        0.0282
     11 C          65.2664   90.8407   13.0297 C.ar    1  UNL1        0.0032
     12 C          66.0025   91.8483   13.8620 C.ar    1  UNL1        0.0115
     13 C          65.6548   92.0221   15.3109 C.ar    1  UNL1        0.0585
     14 CL         66.3909   93.0298   16.1432 Cl      1  UNL1       -0.0822
     15 C          64.5710   91.1883   15.9273 C.ar    1  UNL1        0.0228
     16 C          63.8348   90.1806   15.0949 C.ar    1  UNL1        0.0599
     17 CL         62.7510   89.3468   15.7113 Cl      1  UNL1       -0.0822
     18 C          62.9218   85.0698   12.6283 C.ar    1  UNL1        0.0358
     19 C          62.7423   84.0471   11.5459 C.ar    1  UNL1        0.0030
     20 C          62.8480   82.5862   11.8694 C.ar    1  UNL1        0.0001
     21 C          63.1332   82.1480   13.2753 C.ar    1  UNL1        0.0000
     22 C          63.3127   83.1708   14.3577 C.ar    1  UNL1        0.0001
     23 C          63.2070   84.6317   14.0343 C.ar    1  UNL1        0.0030
     24 N          62.9234   91.4156    9.9863 N.3     1  UNL1       -0.3173
     25 C          62.4989   90.9134   11.3345 C.3     1  UNL1        0.0965
     26 H          62.7842   92.4251    9.9403 H       1  UNL1        0.1192
     27 H          62.3649   90.9621    9.2632 H       1  UNL1        0.1192
@<TRIPOS>BOND
     1    24    25    1
     2    25     1    1
     3     1     2   ar
     4     2     3    1
     5     2     4   ar
     6     4     5   ar
     7     5    18    1
     8    18    19   ar
     9    19    20   ar
    10    20    21   ar
    11    21    22   ar
    12    22    23   ar
    13     5     6   ar
    14     6     7   ar
    15     7    10    1
    16    10    11   ar
    17    11    12   ar
    18    12    13   ar
    19    13    14    1
    20    13    15   ar
    21    15    16   ar
    22    16    17    1
    23     7     1   ar
    24    16    10   ar
    25    23    18   ar
    26    24    26    1
    27    24    27    1
    28     3     8    1
    29     3     9    1
@<TRIPOS>MOLECULE
*****
 27 29 0 0 0
SMALL
GASTEIGER

@<TRIPOS>ATOM
      1 C          62.8649   87.6525   12.2810 C.ar    1  UNL1        0.0423
      2 C          63.5869   87.0004   13.4226 C.ar    1  UNL1        0.1257
      3 N          64.3904   87.8342   14.3761 N.pl3   1  UNL1       -0.3428
      4 N          63.5056   85.5145   13.6107 N.ar    1  UNL1       -0.2126
      5 C          62.7022   84.6806   12.6572 C.ar    1  UNL1        0.1635
      6 N          61.9801   85.3327   11.5156 N.ar    1  UNL1       -0.2267
      7 C          62.0614   86.8186   11.3275 C.ar    1  UNL1        0.0837
      8 H          64.4438   88.8095   14.2527 H       1  UNL1        0.1437
      9 H          64.8643   87.4062   15.1254 H       1  UNL1        0.1437
     10 C          61.3393   87.4707   10.1858 C.ar    1  UNL1        0.0282
     11 C          60.6093   88.7634   10.4005 C.ar    1  UNL1        0.0032
     12 C          59.8872   89.4154    9.2589 C.ar    1  UNL1        0.0115
     13 C          59.8951   88.7749    7.9025 C.ar    1  UNL1        0.0585
     14 CL         59.1730   89.4269    6.7609 Cl      1  UNL1       -0.0822
     15 C          60.6251   87.4822    7.6878 C.ar    1  UNL1        0.0228
     16 C          61.3472   86.8301    8.8295 C.ar    1  UNL1        0.0599
     17 CL         62.0773   85.5375    8.6148 Cl      1  UNL1       -0.0822
     18 C          62.6208   83.1947   12.8454 C.ar    1  UNL1        0.0358
     19 C          63.0029   82.2747   11.7240 C.ar    1  UNL1        0.0030
     20 C          62.9215   80.7888   11.9121 C.ar    1  UNL1        0.0001
     21 C          62.4581   80.2228   13.2217 C.ar    1  UNL1        0.0000
     22 C          62.0761   81.1428   14.3431 C.ar    1  UNL1        0.0001
     23 C          62.1574   82.6288   14.1549 C.ar    1  UNL1        0.0030
     24 N          62.4864   90.0589   13.1842 N.3     1  UNL1       -0.3173
     25 C          62.9462   89.1384   12.0928 C.3     1  UNL1        0.0965
     26 H          62.6126   91.0268   12.8883 H       1  UNL1        0.1192
     27 H          63.0341   89.8869   14.0273 H       1  UNL1        0.1192
@<TRIPOS>BOND
     1    24    25    1
     2    25     1    1
     3     1     2   ar
     4     2     3    1
     5     2     4   ar
     6     4     5   ar
     7     5    18    1
     8    18    19   ar
     9    19    20   ar
    10    20    21   ar
    11    21    22   ar
    12    22    23   ar
    13     5     6   ar
    14     6     7   ar
    15     7    10    1
    16    10    11   ar
    17    11    12   ar
    18    12    13   ar
    19    13    14    1
    20    13    15   ar
    21    15    16   ar
    22    16    17    1
    23     7     1   ar
    24    16    10   ar
    25    23    18   ar
    26    24    26    1
    27    24    27    1
    28     3     8    1
    29     3     9    1
@<TRIPOS>MOLECULE
*****
 27 29 0 0 0
SMALL
GASTEIGER

@<TRIPOS>ATOM
      1 C          63.4632   87.8191   16.0547 C.ar    1  UNL1        0.0423
      2 C          63.0566   86.4999   16.6415 C.ar    1  UNL1        0.1257
      3 N          62.6422   86.4150   18.0806 N.pl3   1  UNL1       -0.3428
      4 N          63.0643   85.2656   15.7891 N.ar    1  UNL1       -0.2126
      5 C          63.4786   85.3506   14.3500 C.ar    1  UNL1        0.1635
      6 N          63.8852   86.6698   13.7632 N.ar    1  UNL1       -0.2267
      7 C          63.8775   87.9040   14.6156 C.ar    1  UNL1        0.0837
      8 H          62.6371   87.2250   18.6401 H       1  UNL1        0.1437
      9 H          62.3753   85.5491   18.4658 H       1  UNL1        0.1437
     10 C          64.2841   89.2233   14.0287 C.ar    1  UNL1        0.0282
     11 C          65.3690   90.0304   14.6780 C.ar    1  UNL1        0.0032
     12 C          65.7757   91.3496   14.0912 C.ar    1  UNL1        0.0115
     13 C          65.0974   91.8617   12.8551 C.ar    1  UNL1        0.0585
     14 CL         65.5040   93.1809   12.2684 Cl      1  UNL1       -0.0822
     15 C          64.0125   91.0546   12.2059 C.ar    1  UNL1        0.0228
     16 C          63.6058   89.7353   12.7928 C.ar    1  UNL1        0.0599
     17 CL         62.5209   88.9282   12.1436 Cl      1  UNL1       -0.0822
     18 C          63.4863   84.1163   13.4977 C.ar    1  UNL1        0.0358
     19 C          63.4633   84.2370   12.0027 C.ar    1  UNL1        0.0030
     20 C          63.4710   83.0027   11.1504 C.ar    1  UNL1        0.0001
     21 C          63.5017   81.6477   11.7930 C.ar    1  UNL1        0.0000
     22 C          63.5248   81.5270   13.2879 C.ar    1  UNL1        0.0001
     23 C          63.5170   82.7613   14.1402 C.ar    1  UNL1        0.0030
     24 N          62.4009   90.1001   16.7017 N.3     1  UNL1       -0.3173
     25 C          63.4554   89.0534   16.9070 C.3     1  UNL1        0.0965
     26 H          62.5465   90.8636   17.3621 H       1  UNL1        0.1192
     27 H          61.4798   89.6894   16.8545 H       1  UNL1        0.1192
@<TRIPOS>BOND
     1    24    25    1
     2    25     1    1
     3     1     2   ar
     4     2     3    1
     5     2     4   ar
     6     4     5   ar
     7     5    18    1
     8    18    19   ar
     9    19    20   ar
    10    20    21   ar
    11    21    22   ar
    12    22    23   ar
    13     5     6   ar
    14     6     7   ar
    15     7    10    1
    16    10    11   ar
    17    11    12   ar
    18    12    13   ar
    19    13    14    1
    20    13    15   ar
    21    15    16   ar
    22    16    17    1
    23     7     1   ar
    24    16    10   ar
    25    23    18   ar
    26    24    26    1
    27    24    27    1
    28     3     8    1
    29     3     9    1
@<TRIPOS>MOLECULE
*****
 27 29 0 0 0
SMALL
GASTEIGER

@<TRIPOS>ATOM
      1 C          63.7837   90.6099   12.3438 C.ar    1  UNL1        0.0423
      2 C          62.8531   89.6440   11.6724 C.ar    1  UNL1        0.1257
      3 N          61.9849   90.1037   10.5387 N.pl3   1  UNL1       -0.3428
      4 N          62.7905   88.2183   12.1345 N.ar    1  UNL1       -0.2126
      5 C          63.6586   87.7586   13.2680 C.ar    1  UNL1        0.1635
      6 N          64.5892   88.7245   13.9395 N.ar    1  UNL1       -0.2267
      7 C          64.6518   90.1502   13.4774 C.ar    1  UNL1        0.0837
      8 H          62.0259   91.0394   10.2354 H       1  UNL1        0.1437
      9 H          61.3741   89.4697   10.0980 H       1  UNL1        0.1437
     10 C          65.5824   91.1162   14.1489 C.ar    1  UNL1        0.0282
     11 C          66.8640   91.5126   13.4777 C.ar    1  UNL1        0.0032
     12 C          67.7946   92.4785   14.1492 C.ar    1  UNL1        0.0115
     13 C          67.4438   93.0480   15.4919 C.ar    1  UNL1        0.0585
     14 CL         68.3744   94.0139   16.1633 Cl      1  UNL1       -0.0822
     15 C          66.1622   92.6515   16.1630 C.ar    1  UNL1        0.0228
     16 C          65.2315   91.6856   15.4915 C.ar    1  UNL1        0.0599
     17 CL         63.9500   91.2891   16.1626 Cl      1  UNL1       -0.0822
     18 C          63.5961   86.3329   13.7302 C.ar    1  UNL1        0.0358
     19 C          64.0962   85.9644   15.0954 C.ar    1  UNL1        0.0030
     20 C          64.0337   84.5388   15.5575 C.ar    1  UNL1        0.0001
     21 C          63.4711   83.4816   14.6544 C.ar    1  UNL1        0.0000
     22 C          62.9710   83.8501   13.2891 C.ar    1  UNL1        0.0001
     23 C          63.0335   85.2758   12.8270 C.ar    1  UNL1        0.0030
     24 N          64.3574   92.3573   10.5087 N.3     1  UNL1       -0.3173
     25 C          63.8462   92.0356   11.8817 C.3     1  UNL1        0.0965
     26 H          64.3304   93.3665   10.3636 H       1  UNL1        0.1192
     27 H          63.7717   91.8977    9.8115 H       1  UNL1        0.1192
@<TRIPOS>BOND
     1    24    25    1
     2    25     1    1
     3     1     2   ar
     4     2     3    1
     5     2     4   ar
     6     4     5   ar
     7     5    18    1
     8    18    19   ar
     9    19    20   ar
    10    20    21   ar
    11    21    22   ar
    12    22    23   ar
    13     5     6   ar
    14     6     7   ar
    15     7    10    1
    16    10    11   ar
    17    11    12   ar
    18    12    13   ar
    19    13    14    1
    20    13    15   ar
    21    15    16   ar
    22    16    17    1
    23     7     1   ar
    24    16    10   ar
    25    23    18   ar
    26    24    26    1
    27    24    27    1
    28     3     8    1
    29     3     9    1
@<TRIPOS>MOLECULE
*****
 27 29 0 0 0
SMALL
GASTEIGER

@<TRIPOS>ATOM
      1 C          62.4221   86.5618   11.3190 C.ar    1  UNL1        0.0423
      2 C          62.2392   88.0147   10.9943 C.ar    1  UNL1        0.1257
      3 N          61.5400   88.4185    9.7301 N.pl3   1  UNL1       -0.3428
      4 N          62.7555   89.0639   11.9337 N.ar    1  UNL1       -0.2126
      5 C          63.4547   88.6602   13.1979 C.ar    1  UNL1        0.1635
      6 N          63.6376   87.2073   13.5226 N.ar    1  UNL1       -0.2267
      7 C          63.1214   86.1581   12.5831 C.ar    1  UNL1        0.0837
      8 H          61.2011   87.7298    9.1135 H       1  UNL1        0.1437
      9 H          61.4199   89.3721    9.5170 H       1  UNL1        0.1437
     10 C          63.3043   84.7051   12.9078 C.ar    1  UNL1        0.0282
     11 C          64.1329   83.8345   12.0103 C.ar    1  UNL1        0.0032
     12 C          64.3159   82.3816   12.3350 C.ar    1  UNL1        0.0115
     13 C          63.6703   81.7991   13.5573 C.ar    1  UNL1        0.0585
     14 CL         63.8532   80.3462   13.8820 Cl      1  UNL1       -0.0822
     15 C          62.8417   82.6697   14.4549 C.ar    1  UNL1        0.0228
     16 C          62.6587   84.1227   14.1301 C.ar    1  UNL1        0.0599
     17 CL         61.8302   84.9932   15.0277 Cl      1  UNL1       -0.0822
     18 C          63.9710   89.7095   14.1373 C.ar    1  UNL1        0.0358
     19 C          65.0937   90.6091   13.7130 C.ar    1  UNL1        0.0030
     20 C          65.6100   91.6584   14.6525 C.ar    1  UNL1        0.0001
     21 C          65.0036   91.8079   16.0162 C.ar    1  UNL1        0.0000
     22 C          63.8809   90.9082   16.4405 C.ar    1  UNL1        0.0001
     23 C          63.3646   89.8590   15.5011 C.ar    1  UNL1        0.0030
     24 N          62.4142   85.4526    8.9696 N.3     1  UNL1       -0.3173
     25 C          61.9059   85.5125   10.3795 C.3     1  UNL1        0.0965
     26 H          61.9591   84.6845    8.4764 H       1  UNL1        0.1192
     27 H          63.4228   85.3010    8.9780 H       1  UNL1        0.1192
@<TRIPOS>BOND
     1    24    25    1
     2    25     1    1
     3     1     2   ar
     4     2     3    1
     5     2     4   ar
     6     4     5   ar
     7     5    18    1
     8    18    19   ar
     9    19    20   ar
    10    20    21   ar
    11    21    22   ar
    12    22    23   ar
    13     5     6   ar
    14     6     7   ar
    15     7    10    1
    16    10    11   ar
    17    11    12   ar
    18    12    13   ar
    19    13    14    1
    20    13    15   ar
    21    15    16   ar
    22    16    17    1
    23     7     1   ar
    24    16    10   ar
    25    23    18   ar
    26    24    26    1
    27    24    27    1
    28     3     8    1
    29     3     9    1
