@<TRIPOS>MOLECULE
*****
 32 35 0 0 0
SMALL
GASTEIGER

@<TRIPOS>ATOM
      1 C          63.3937   87.3935   16.1446 C.ar    1  UNL1        0.1803
      2 C          64.1969   87.7530   14.9298 C.ar    1  UNL1        0.0516
      3 C          64.5912   89.1796   14.6866 C.ar    1  UNL1        0.0019
      4 C          64.1823   90.2468   15.6581 C.ar    1  UNL1       -0.0023
      5 C          63.3792   89.8874   16.8729 C.ar    1  UNL1        0.0019
      6 C          62.9848   88.4607   17.1162 C.ar    1  UNL1        0.0516
      7 S          62.9994   85.9668   16.3878 S.O     1  UNL1        0.0474
      8 O          62.2917   85.5900   17.6556 O.co2   1  UNL1       -0.6776
      9 N          63.9396   82.8175   13.3142 N.3     1  UNL1       -0.2723
     10 C          62.5701   82.8868   13.9222 C.3     1  UNL1        0.0773
     11 C          62.2567   83.9367   14.9467 C.3     1  UNL1        0.0767
     12 C          63.3128   84.9170   15.3633 C.3     1  UNL1        0.2101
     13 C          64.6823   84.8476   14.7552 C.3     1  UNL1        0.0767
     14 C          64.9957   83.7979   13.7307 C.3     1  UNL1        0.0773
     15 C          64.2530   81.7677   12.2896 C.3     1  UNL1        0.0721
     16 C          63.9215   83.2194   10.1606 C.3     1  UNL1        0.0014
     17 C          63.7494   81.9169   10.8846 C.3     1  UNL1        0.0160
     18 C          63.0737   80.7639   10.2036 C.3     1  UNL1        0.0014
     19 C          64.5767   91.6735   15.4149 C.3     1  UNL1        0.1167
     20 N          64.9456   92.1244   14.0326 N.am    1  UNL1       -0.2944
     21 C          66.1035   93.0565   13.8318 C.2     1  UNL1        0.2808
     22 O          66.8925   93.5378   15.0132 O.2     1  UNL1       -0.2668
     23 H          64.4277   91.8085   13.2572 H       1  UNL1        0.1501
     24 C          66.4723   93.5074   12.4495 C.ar    1  UNL1        0.1984
     25 C          66.1659   94.8468   11.8479 C.ar    1  UNL1        0.0453
     26 C          66.7166   94.8653   10.4527 C.ar    1  UNL1        0.0409
     27 C          66.7127   95.9198    9.3860 C.ar    1  UNL1        0.0238
     28 C          67.3555   95.6462    8.0587 C.ar    1  UNL1        0.0991
     29 N          68.0023   94.3181    7.7981 N.ar    1  UNL1       -0.2391
     30 C          68.0063   93.2636    8.8648 C.ar    1  UNL1        0.1362
     31 C          67.3634   93.5372   10.1921 C.ar    1  UNL1        0.1646
     32 O          67.2124   92.6980   11.4262 O.2     1  UNL1       -0.4473
@<TRIPOS>UNITY_ATOM_ATTR
7 1
charge 1
8 1
charge -1
@<TRIPOS>BOND
     1    16    17    1
     2    17    18    1
     3    17    15    1
     4    15     9    1
     5     9    10    1
     6    10    11    1
     7    11    12    1
     8    12     7    1
     9     7     8    2
    10     7     1    1
    11     1     2   ar
    12     2     3   ar
    13     3     4   ar
    14     4    19    1
    15    19    20    1
    16    20    21   am
    17    21    22    2
    18    21    24    1
    19    24    25   ar
    20    25    26   ar
    21    26    27   ar
    22    27    28   ar
    23    28    29   ar
    24    29    30   ar
    25    30    31   ar
    26    31    32   ar
    27     4     5   ar
    28     5     6   ar
    29    12    13    1
    30    13    14    1
    31    14     9    1
    32     6     1   ar
    33    32    24   ar
    34    31    26   ar
    35    20    23    1
@<TRIPOS>MOLECULE
*****
 32 35 0 0 0
SMALL
GASTEIGER

@<TRIPOS>ATOM
      1 C          63.8882   89.6354   15.5950 C.ar    1  UNL1        0.1803
      2 C          64.5244   88.5951   14.7214 C.ar    1  UNL1        0.0516
      3 C          64.4233   87.1441   15.0879 C.ar    1  UNL1        0.0019
      4 C          63.6861   86.7334   16.3280 C.ar    1  UNL1       -0.0023
      5 C          63.0500   87.7736   17.2016 C.ar    1  UNL1        0.0019
      6 C          63.1510   89.2247   16.8350 C.ar    1  UNL1        0.0516
      7 S          63.9893   91.0864   15.2284 S.O     1  UNL1        0.0474
      8 O          63.3754   92.1286   16.1156 O.co2   1  UNL1       -0.6776
      9 N          66.1342   92.3128   11.4674 N.3     1  UNL1       -0.2723
     10 C          64.6926   91.9027   11.4088 C.3     1  UNL1        0.0773
     11 C          63.9775   91.4939   12.6625 C.3     1  UNL1        0.0767
     12 C          64.7042   91.4952   13.9748 C.3     1  UNL1        0.2101
     13 C          66.1459   91.9054   14.0333 C.3     1  UNL1        0.0767
     14 C          66.8609   92.3142   12.7796 C.3     1  UNL1        0.0773
     15 C          66.8491   92.7216   10.2137 C.3     1  UNL1        0.0721
     16 C          67.6440   94.5798    8.5811 C.3     1  UNL1        0.0014
     17 C          66.9064   94.1680    9.8207 C.3     1  UNL1        0.0160
     18 C          66.2260   95.2028   10.6671 C.3     1  UNL1        0.0014
     19 C          63.5851   85.2823   16.6945 C.3     1  UNL1        0.1167
     20 N          63.6923   84.2307   15.6302 N.am    1  UNL1       -0.2944
     21 C          62.4828   83.8470   14.8304 C.2     1  UNL1        0.2808
     22 O          61.1660   84.5149   15.0948 O.2     1  UNL1       -0.2668
     23 H          64.5566   83.7924   15.4567 H       1  UNL1        0.1501
     24 C          62.5901   82.7955   13.7661 C.ar    1  UNL1        0.1984
     25 C          62.9435   83.0300   12.3273 C.ar    1  UNL1        0.0453
     26 C          62.9346   81.7042   11.6257 C.ar    1  UNL1        0.0409
     27 C          63.2069   81.3205   10.2015 C.ar    1  UNL1        0.0238
     28 C          63.1204   79.8829    9.7824 C.ar    1  UNL1        0.0991
     29 N          62.7615   78.8289   10.7876 N.ar    1  UNL1       -0.2391
     30 C          62.4892   79.2126   12.2119 C.ar    1  UNL1        0.1362
     31 C          62.5757   80.6503   12.6309 C.ar    1  UNL1        0.1646
     32 O          62.3628   81.3247   13.9537 O.2     1  UNL1       -0.4473
@<TRIPOS>UNITY_ATOM_ATTR
7 1
charge 1
8 1
charge -1
@<TRIPOS>BOND
     1    16    17    1
     2    17    18    1
     3    17    15    1
     4    15     9    1
     5     9    10    1
     6    10    11    1
     7    11    12    1
     8    12     7    1
     9     7     8    2
    10     7     1    1
    11     1     2   ar
    12     2     3   ar
    13     3     4   ar
    14     4    19    1
    15    19    20    1
    16    20    21   am
    17    21    22    2
    18    21    24    1
    19    24    25   ar
    20    25    26   ar
    21    26    27   ar
    22    27    28   ar
    23    28    29   ar
    24    29    30   ar
    25    30    31   ar
    26    31    32   ar
    27     4     5   ar
    28     5     6   ar
    29    12    13    1
    30    13    14    1
    31    14     9    1
    32     6     1   ar
    33    32    24   ar
    34    31    26   ar
    35    20    23    1
@<TRIPOS>MOLECULE
*****
 32 35 0 0 0
SMALL
GASTEIGER

@<TRIPOS>ATOM
      1 C          61.7844   88.1751   10.7216 C.ar    1  UNL1        0.1803
      2 C          61.6126   87.2172    9.5800 C.ar    1  UNL1        0.0516
      3 C          60.7801   87.6052    8.3942 C.ar    1  UNL1        0.0019
      4 C          60.1194   88.9511    8.3497 C.ar    1  UNL1       -0.0023
      5 C          60.2911   89.9090    9.4912 C.ar    1  UNL1        0.0019
      6 C          61.1237   89.5210   10.6772 C.ar    1  UNL1        0.0516
      7 S          62.6169   87.7870   11.9075 S.O     1  UNL1        0.0474
      8 O          62.6849   86.3520   12.3388 O.co2   1  UNL1       -0.6776
      9 N          64.9103   90.9280   14.1711 N.3     1  UNL1       -0.2723
     10 C          64.7388   89.5574   14.7558 C.3     1  UNL1        0.0773
     11 C          63.9743   88.5104   14.0013 C.3     1  UNL1        0.0767
     12 C          63.3813   88.8340   12.6620 C.3     1  UNL1        0.2101
     13 C          63.5529   90.2047   12.0772 C.3     1  UNL1        0.0767
     14 C          64.3174   91.2516   12.8318 C.3     1  UNL1        0.0773
     15 C          65.6748   91.9750   14.9256 C.3     1  UNL1        0.0721
     16 C          68.0104   92.3186   16.0104 C.3     1  UNL1        0.0014
     17 C          67.1675   92.0510   14.7988 C.3     1  UNL1        0.0160
     18 C          67.8172   91.8595   13.4605 C.3     1  UNL1        0.0014
     19 C          59.2869   89.3392    7.1638 C.3     1  UNL1        0.1167
     20 N          59.9012   90.1185    6.0390 N.am    1  UNL1       -0.2944
     21 C          59.0613   91.0699    5.2393 C.2     1  UNL1        0.2808
     22 O          57.6072   91.2418    5.5644 O.2     1  UNL1       -0.2668
     23 H          60.8556   90.0057    5.8256 H       1  UNL1        0.1501
     24 C          59.6756   91.8492    4.1145 C.ar    1  UNL1        0.1984
     25 C          61.1346   91.8983    3.7695 C.ar    1  UNL1        0.0453
     26 C          61.2995   92.7958    2.5789 C.ar    1  UNL1        0.0409
     27 C          62.5100   93.2179    1.8002 C.ar    1  UNL1        0.0238
     28 C          62.3635   94.1457    0.6307 C.ar    1  UNL1        0.0991
     29 N          61.0064   94.6512    0.2399 N.ar    1  UNL1       -0.2391
     30 C          59.7959   94.2291    1.0186 C.ar    1  UNL1        0.1362
     31 C          59.9424   93.3014    2.1881 C.ar    1  UNL1        0.1646
     32 O          58.9389   92.7164    3.1371 O.2     1  UNL1       -0.4473
@<TRIPOS>UNITY_ATOM_ATTR
7 1
charge 1
8 1
charge -1
@<TRIPOS>BOND
     1    16    17    1
     2    17    18    1
     3    17    15    1
     4    15     9    1
     5     9    10    1
     6    10    11    1
     7    11    12    1
     8    12     7    1
     9     7     8    2
    10     7     1    1
    11     1     2   ar
    12     2     3   ar
    13     3     4   ar
    14     4    19    1
    15    19    20    1
    16    20    21   am
    17    21    22    2
    18    21    24    1
    19    24    25   ar
    20    25    26   ar
    21    26    27   ar
    22    27    28   ar
    23    28    29   ar
    24    29    30   ar
    25    30    31   ar
    26    31    32   ar
    27     4     5   ar
    28     5     6   ar
    29    12    13    1
    30    13    14    1
    31    14     9    1
    32     6     1   ar
    33    32    24   ar
    34    31    26   ar
    35    20    23    1
@<TRIPOS>MOLECULE
*****
 32 35 0 0 0
SMALL
GASTEIGER

@<TRIPOS>ATOM
      1 C          61.7274   88.0070   10.6600 C.ar    1  UNL1        0.1803
      2 C          61.1218   86.9699    9.7611 C.ar    1  UNL1        0.0516
      3 C          60.2993   87.3898    8.5791 C.ar    1  UNL1        0.0019
      4 C          60.0823   88.8468    8.2960 C.ar    1  UNL1       -0.0023
      5 C          60.6877   89.8838    9.1948 C.ar    1  UNL1        0.0019
      6 C          61.5103   89.4639   10.3768 C.ar    1  UNL1        0.0516
      7 S          62.5499   87.5871   11.8420 S.O     1  UNL1        0.0474
      8 O          63.0109   88.6108   12.8367 O.co2   1  UNL1       -0.6776
      9 N          63.6345   83.2560   12.4038 N.3     1  UNL1       -0.2723
     10 C          63.1285   83.7363   11.0760 C.3     1  UNL1        0.0773
     11 C          62.7669   85.1800   10.8886 C.3     1  UNL1        0.0767
     12 C          62.9114   86.1434   12.0292 C.3     1  UNL1        0.2101
     13 C          63.4175   85.6631   13.3572 C.3     1  UNL1        0.0767
     14 C          63.7790   84.2195   13.5444 C.3     1  UNL1        0.0773
     15 C          63.9960   81.8124   12.5911 C.3     1  UNL1        0.0721
     16 C          62.8339   80.2009   10.9170 C.3     1  UNL1        0.0014
     17 C          62.9833   80.7427   12.3077 C.3     1  UNL1        0.0160
     18 C          62.1200   80.2150   13.4150 C.3     1  UNL1        0.0014
     19 C          59.2597   89.2666    7.1139 C.3     1  UNL1        0.1167
     20 N          59.8875   90.0619    6.0078 N.am    1  UNL1       -0.2944
     21 C          59.0634   91.0441    5.2292 C.2     1  UNL1        0.2808
     22 O          57.6117   91.2310    5.5568 O.2     1  UNL1       -0.2668
     23 H          60.8403   89.9391    5.7929 H       1  UNL1        0.1501
     24 C          59.6912   91.8393    4.1231 C.ar    1  UNL1        0.1984
     25 C          61.1523   91.8802    3.7861 C.ar    1  UNL1        0.0453
     26 C          61.3322   92.7995    2.6145 C.ar    1  UNL1        0.0409
     27 C          62.5508   93.2245    1.8501 C.ar    1  UNL1        0.0238
     28 C          62.4195   94.1768    0.6987 C.ar    1  UNL1        0.0991
     29 N          61.0696   94.7040    0.3116 N.ar    1  UNL1       -0.2391
     30 C          59.8510   94.2790    1.0760 C.ar    1  UNL1        0.1362
     31 C          59.9823   93.3267    2.2274 C.ar    1  UNL1        0.1646
     32 O          58.9681   92.7333    3.1598 O.2     1  UNL1       -0.4473
@<TRIPOS>UNITY_ATOM_ATTR
7 1
charge 1
8 1
charge -1
@<TRIPOS>BOND
     1    16    17    1
     2    17    18    1
     3    17    15    1
     4    15     9    1
     5     9    10    1
     6    10    11    1
     7    11    12    1
     8    12     7    1
     9     7     8    2
    10     7     1    1
    11     1     2   ar
    12     2     3   ar
    13     3     4   ar
    14     4    19    1
    15    19    20    1
    16    20    21   am
    17    21    22    2
    18    21    24    1
    19    24    25   ar
    20    25    26   ar
    21    26    27   ar
    22    27    28   ar
    23    28    29   ar
    24    29    30   ar
    25    30    31   ar
    26    31    32   ar
    27     4     5   ar
    28     5     6   ar
    29    12    13    1
    30    13    14    1
    31    14     9    1
    32     6     1   ar
    33    32    24   ar
    34    31    26   ar
    35    20    23    1
@<TRIPOS>MOLECULE
*****
 32 35 0 0 0
SMALL
GASTEIGER

@<TRIPOS>ATOM
      1 C          60.7984   92.5489    2.9404 C.ar    1  UNL1        0.1803
      2 C          59.3382   92.6561    3.2666 C.ar    1  UNL1        0.0516
      3 C          58.7562   91.8360    4.3796 C.ar    1  UNL1        0.0019
      4 C          59.6343   90.9088    5.1664 C.ar    1  UNL1       -0.0023
      5 C          61.0945   90.8015    4.8402 C.ar    1  UNL1        0.0019
      6 C          61.6765   91.6216    3.7271 C.ar    1  UNL1        0.0516
      7 S          61.3804   93.3689    1.8274 S.O     1  UNL1        0.0474
      8 O          62.7992   93.8484    1.9118 O.co2   1  UNL1       -0.6776
      9 N          58.8700   94.3907   -1.7648 N.3     1  UNL1       -0.2723
     10 C          59.5121   93.0393   -1.6584 C.3     1  UNL1        0.0773
     11 C          60.3489   92.6986   -0.4610 C.3     1  UNL1        0.0767
     12 C          60.5436   93.7095    0.6300 C.3     1  UNL1        0.2101
     13 C          59.9015   95.0610    0.5236 C.3     1  UNL1        0.0767
     14 C          59.0647   95.4015   -0.6738 C.3     1  UNL1        0.0773
     15 C          58.0332   94.7312   -2.9621 C.3     1  UNL1        0.0721
     16 C          55.8194   93.7941   -1.9767 C.3     1  UNL1        0.0014
     17 C          56.7009   94.0706   -3.1585 C.3     1  UNL1        0.0160
     18 C          56.2501   93.6865   -4.5366 C.3     1  UNL1        0.0014
     19 C          59.0522   90.0887    6.2794 C.3     1  UNL1        0.1167
     20 N          59.9167   89.6640    7.4293 N.am    1  UNL1       -0.2944
     21 C          59.7173   88.3179    8.0604 C.2     1  UNL1        0.2808
     22 O          58.6534   87.3966    7.5416 O.2     1  UNL1       -0.2668
     23 H          60.6150   90.2687    7.7698 H       1  UNL1        0.1501
     24 C          60.5818   87.8932    9.2103 C.ar    1  UNL1        0.1984
     25 C          60.7780   86.4868    9.6935 C.ar    1  UNL1        0.0453
     26 C          61.7193   86.5248   10.8608 C.ar    1  UNL1        0.0409
     27 C          62.2751   85.4420   11.7375 C.ar    1  UNL1        0.0238
     28 C          63.2165   85.7892   12.8525 C.ar    1  UNL1        0.0991
     29 N          63.6021   87.2191   13.0907 N.ar    1  UNL1       -0.2391
     30 C          63.0462   88.3018   12.2140 C.ar    1  UNL1        0.1362
     31 C          62.1048   87.9546   11.0991 C.ar    1  UNL1        0.1646
     32 O          61.4018   88.8004   10.0790 O.2     1  UNL1       -0.4473
@<TRIPOS>UNITY_ATOM_ATTR
7 1
charge 1
8 1
charge -1
@<TRIPOS>BOND
     1    16    17    1
     2    17    18    1
     3    17    15    1
     4    15     9    1
     5     9    10    1
     6    10    11    1
     7    11    12    1
     8    12     7    1
     9     7     8    2
    10     7     1    1
    11     1     2   ar
    12     2     3   ar
    13     3     4   ar
    14     4    19    1
    15    19    20    1
    16    20    21   am
    17    21    22    2
    18    21    24    1
    19    24    25   ar
    20    25    26   ar
    21    26    27   ar
    22    27    28   ar
    23    28    29   ar
    24    29    30   ar
    25    30    31   ar
    26    31    32   ar
    27     4     5   ar
    28     5     6   ar
    29    12    13    1
    30    13    14    1
    31    14     9    1
    32     6     1   ar
    33    32    24   ar
    34    31    26   ar
    35    20    23    1
@<TRIPOS>MOLECULE
*****
 32 35 0 0 0
SMALL
GASTEIGER

@<TRIPOS>ATOM
      1 C          61.6958   85.7942   10.1122 C.ar    1  UNL1        0.1803
      2 C          61.6876   85.6896    8.6158 C.ar    1  UNL1        0.0516
      3 C          60.8905   86.6639    7.8002 C.ar    1  UNL1        0.0019
      4 C          60.1015   87.7428    8.4810 C.ar    1  UNL1       -0.0023
      5 C          60.1096   87.8475    9.9773 C.ar    1  UNL1        0.0019
      6 C          60.9068   86.8731   10.7929 C.ar    1  UNL1        0.0516
      7 S          62.4930   84.8199   10.9277 S.O     1  UNL1        0.0474
      8 O          62.9408   83.5234   10.3206 O.co2   1  UNL1       -0.6776
      9 N          63.5411   85.7863   15.1959 N.3     1  UNL1       -0.2723
     10 C          63.8701   86.7605   14.1038 C.3     1  UNL1        0.0773
     11 C          63.5207   86.4384   12.6810 C.3     1  UNL1        0.0767
     12 C          62.8423   85.1420   12.3504 C.3     1  UNL1        0.2101
     13 C          62.5134   84.1678   13.4426 C.3     1  UNL1        0.0767
     14 C          62.8627   84.4900   14.8653 C.3     1  UNL1        0.0773
     15 C          63.8905   86.1085   16.6186 C.3     1  UNL1        0.0721
     16 C          63.0983   88.5771   16.7886 C.3     1  UNL1        0.0014
     17 C          63.1448   87.1861   17.3484 C.3     1  UNL1        0.0160
     18 C          62.4457   86.8730   18.6380 C.3     1  UNL1        0.0014
     19 C          59.3043   88.7172    7.6653 C.3     1  UNL1        0.1167
     20 N          59.9870   89.5698    6.6373 N.am    1  UNL1       -0.2944
     21 C          59.1757   90.4543    5.7377 C.2     1  UNL1        0.2808
     22 O          57.6815   90.4862    5.8661 O.2     1  UNL1       -0.2668
     23 H          60.9677   89.5489    6.5530 H       1  UNL1        0.1501
     24 C          59.8584   91.3070    4.7097 C.ar    1  UNL1        0.1984
     25 C          59.2038   92.3509    3.8543 C.ar    1  UNL1        0.0453
     26 C          60.2565   92.9545    2.9724 C.ar    1  UNL1        0.0409
     27 C          60.1951   94.0283    1.9270 C.ar    1  UNL1        0.0238
     28 C          61.4390   94.4313    1.1919 C.ar    1  UNL1        0.0991
     29 N          62.7442   93.7604    1.5023 N.ar    1  UNL1       -0.2391
     30 C          62.8055   92.6866    2.5478 C.ar    1  UNL1        0.1362
     31 C          61.5617   92.2836    3.2829 C.ar    1  UNL1        0.1646
     32 O          61.3156   91.2654    4.3565 O.2     1  UNL1       -0.4473
@<TRIPOS>UNITY_ATOM_ATTR
7 1
charge 1
8 1
charge -1
@<TRIPOS>BOND
     1    16    17    1
     2    17    18    1
     3    17    15    1
     4    15     9    1
     5     9    10    1
     6    10    11    1
     7    11    12    1
     8    12     7    1
     9     7     8    2
    10     7     1    1
    11     1     2   ar
    12     2     3   ar
    13     3     4   ar
    14     4    19    1
    15    19    20    1
    16    20    21   am
    17    21    22    2
    18    21    24    1
    19    24    25   ar
    20    25    26   ar
    21    26    27   ar
    22    27    28   ar
    23    28    29   ar
    24    29    30   ar
    25    30    31   ar
    26    31    32   ar
    27     4     5   ar
    28     5     6   ar
    29    12    13    1
    30    13    14    1
    31    14     9    1
    32     6     1   ar
    33    32    24   ar
    34    31    26   ar
    35    20    23    1
@<TRIPOS>MOLECULE
*****
 32 35 0 0 0
SMALL
GASTEIGER

@<TRIPOS>ATOM
      1 C          59.4046   89.7737    6.4633 C.ar    1  UNL1        0.1803
      2 C          58.1585   90.4596    5.9869 C.ar    1  UNL1        0.0516
      3 C          58.2425   91.5130    4.9224 C.ar    1  UNL1        0.0019
      4 C          59.5725   91.8807    4.3344 C.ar    1  UNL1       -0.0023
      5 C          60.8186   91.1950    4.8108 C.ar    1  UNL1        0.0019
      6 C          60.7347   90.1414    5.8753 C.ar    1  UNL1        0.0516
      7 S          59.3206   88.7202    7.5278 S.O     1  UNL1        0.0474
      8 O          58.3081   87.6193    7.4152 O.co2   1  UNL1       -0.6776
      9 N          62.1065   88.8625   11.0588 N.3     1  UNL1       -0.2723
     10 C          61.1021   89.9571   10.8514 C.3     1  UNL1        0.0773
     11 C          60.1735   89.9097    9.6743 C.3     1  UNL1        0.0767
     12 C          60.2493   88.7677    8.7048 C.3     1  UNL1        0.2101
     13 C          61.2537   87.6731    8.9123 C.3     1  UNL1        0.0767
     14 C          62.1823   87.7205   10.0893 C.3     1  UNL1        0.0773
     15 C          63.0351   88.9100   12.2358 C.3     1  UNL1        0.0721
     16 C          63.5786   90.5087   14.2104 C.3     1  UNL1        0.0014
     17 C          63.5439   90.2290   12.7371 C.3     1  UNL1        0.0160
     18 C          64.0180   91.2684   11.7650 C.3     1  UNL1        0.0014
     19 C          59.6564   92.9343    3.2699 C.3     1  UNL1        0.1167
     20 N          58.9720   92.7247    1.9517 N.am    1  UNL1       -0.2944
     21 C          59.5719   93.2874    0.6973 C.2     1  UNL1        0.2808
     22 O          60.8562   94.0596    0.7611 O.2     1  UNL1       -0.2668
     23 H          58.1290   92.2179    1.9098 H       1  UNL1        0.1501
     24 C          58.8874   93.0778   -0.6209 C.ar    1  UNL1        0.1984
     25 C          59.3752   93.5615   -1.9543 C.ar    1  UNL1        0.0453
     26 C          58.3842   93.1304   -2.9946 C.ar    1  UNL1        0.0409
     27 C          58.3416   93.3240   -4.4814 C.ar    1  UNL1        0.0238
     28 C          57.1987   92.7675   -5.2777 C.ar    1  UNL1        0.0991
     29 N          56.0985   92.0174   -4.5872 N.ar    1  UNL1       -0.2391
     30 C          56.1411   91.8238   -3.1004 C.ar    1  UNL1        0.1362
     31 C          57.2840   92.3803   -2.3041 C.ar    1  UNL1        0.1646
     32 O          57.5950   92.3478   -0.8371 O.2     1  UNL1       -0.4473
@<TRIPOS>UNITY_ATOM_ATTR
7 1
charge 1
8 1
charge -1
@<TRIPOS>BOND
     1    16    17    1
     2    17    18    1
     3    17    15    1
     4    15     9    1
     5     9    10    1
     6    10    11    1
     7    11    12    1
     8    12     7    1
     9     7     8    2
    10     7     1    1
    11     1     2   ar
    12     2     3   ar
    13     3     4   ar
    14     4    19    1
    15    19    20    1
    16    20    21   am
    17    21    22    2
    18    21    24    1
    19    24    25   ar
    20    25    26   ar
    21    26    27   ar
    22    27    28   ar
    23    28    29   ar
    24    29    30   ar
    25    30    31   ar
    26    31    32   ar
    27     4     5   ar
    28     5     6   ar
    29    12    13    1
    30    13    14    1
    31    14     9    1
    32     6     1   ar
    33    32    24   ar
    34    31    26   ar
    35    20    23    1
@<TRIPOS>MOLECULE
*****
 32 35 0 0 0
SMALL
GASTEIGER

@<TRIPOS>ATOM
      1 C          59.7676   91.1215    4.8639 C.ar    1  UNL1        0.1803
      2 C          59.3290   92.2523    3.9813 C.ar    1  UNL1        0.0516
      3 C          60.3056   92.8895    3.0377 C.ar    1  UNL1        0.0019
      4 C          61.7207   92.3958    2.9767 C.ar    1  UNL1       -0.0023
      5 C          62.1593   91.2651    3.8592 C.ar    1  UNL1        0.0019
      6 C          61.1828   90.6278    4.8029 C.ar    1  UNL1        0.0516
      7 S          58.7911   90.4843    5.8075 S.O     1  UNL1        0.0474
      8 O          57.3263   90.7835    5.6858 O.co2   1  UNL1       -0.6776
      9 N          60.2561   87.6753    9.0033 N.3     1  UNL1       -0.2723
     10 C          60.5695   89.1396    9.0907 C.3     1  UNL1        0.0773
     11 C          60.0812   90.0760    8.0254 C.3     1  UNL1        0.0767
     12 C          59.2794   89.5480    6.8728 C.3     1  UNL1        0.2101
     13 C          58.9660   88.0837    6.7855 C.3     1  UNL1        0.0767
     14 C          59.4543   87.1474    7.8508 C.3     1  UNL1        0.0773
     15 C          60.7444   86.7390   10.0686 C.3     1  UNL1        0.0721
     16 C          62.5104   85.0359   10.9233 C.3     1  UNL1        0.0014
     17 C          61.9496   85.8817    9.8187 C.3     1  UNL1        0.0160
     18 C          62.5940   85.8702    8.4642 C.3     1  UNL1        0.0014
     19 C          62.6972   93.0330    2.0330 C.3     1  UNL1        0.1167
     20 N          62.3625   93.1534    0.5758 N.am    1  UNL1       -0.2944
     21 C          63.3814   93.6890   -0.3860 C.2     1  UNL1        0.2808
     22 O          64.7349   94.1042    0.1094 O.2     1  UNL1       -0.2668
     23 H          61.4741   92.8809    0.2506 H       1  UNL1        0.1501
     24 C          63.0467   93.8094   -1.8432 C.ar    1  UNL1        0.1984
     25 C          63.8799   93.3047   -2.9839 C.ar    1  UNL1        0.0453
     26 C          63.1682   93.6390   -4.2613 C.ar    1  UNL1        0.0409
     27 C          63.5149   93.3876   -5.6988 C.ar    1  UNL1        0.0238
     28 C          62.5885   93.8475   -6.7852 C.ar    1  UNL1        0.0991
     29 N          61.3154   94.5588   -6.4340 N.ar    1  UNL1       -0.2391
     30 C          60.9687   94.8102   -4.9965 C.ar    1  UNL1        0.1362
     31 C          61.8951   94.3503   -3.9101 C.ar    1  UNL1        0.1646
     32 O          61.8200   94.4556   -2.4157 O.2     1  UNL1       -0.4473
@<TRIPOS>UNITY_ATOM_ATTR
7 1
charge 1
8 1
charge -1
@<TRIPOS>BOND
     1    16    17    1
     2    17    18    1
     3    17    15    1
     4    15     9    1
     5     9    10    1
     6    10    11    1
     7    11    12    1
     8    12     7    1
     9     7     8    2
    10     7     1    1
    11     1     2   ar
    12     2     3   ar
    13     3     4   ar
    14     4    19    1
    15    19    20    1
    16    20    21   am
    17    21    22    2
    18    21    24    1
    19    24    25   ar
    20    25    26   ar
    21    26    27   ar
    22    27    28   ar
    23    28    29   ar
    24    29    30   ar
    25    30    31   ar
    26    31    32   ar
    27     4     5   ar
    28     5     6   ar
    29    12    13    1
    30    13    14    1
    31    14     9    1
    32     6     1   ar
    33    32    24   ar
    34    31    26   ar
    35    20    23    1
