@<TRIPOS>MOLECULE
*****
 25 28 0 0 0
SMALL
GASTEIGER

@<TRIPOS>ATOM
      1 C          63.2736   90.5360   12.3090 C.ar    1  UNL1        0.1540
      2 N          63.9569   91.2171   13.4575 N.ar    1  UNL1       -0.2268
      3 C          64.4279   90.1587   14.4103 C.ar    1  UNL1        0.1153
      4 C          64.0357   88.8235   13.8507 C.ar    1  UNL1        0.0861
      5 N          63.3223   89.0566   12.5520 N.ar    1  UNL1       -0.2933
      6 C          62.7362   88.0451   11.6121 C.ar    1  UNL1        0.0664
      7 C          62.1077   88.7041   10.4202 C.ar    1  UNL1        0.0185
      8 C          61.4619   87.8686    9.3549 C.ar    1  UNL1        0.0129
      9 C          61.4446   86.3740    9.4816 C.ar    1  UNL1        0.0578
     10 CL         60.7987   85.5385    8.4163 Cl      1  UNL1       -0.0822
     11 C          62.0731   85.7150   10.6735 C.ar    1  UNL1        0.0143
     12 C          62.7189   86.5506   11.7387 C.ar    1  UNL1        0.0343
     13 C          63.2833   85.6985   12.8366 C.2     1  UNL1        0.0800
     14 N          64.0045   86.1303   14.0790 N.2     1  UNL1       -0.2638
     15 C          64.3393   87.5211   14.5303 C.3     1  UNL1        0.1707
     16 C          63.1027   84.2187   12.6701 C.ar    1  UNL1        0.0447
     17 C          63.6675   83.5249   11.4660 C.ar    1  UNL1        0.0037
     18 C          63.4868   82.0452   11.2996 C.ar    1  UNL1        0.0002
     19 C          62.7415   81.2592   12.3371 C.ar    1  UNL1        0.0023
     20 C          62.1767   81.9529   13.5412 C.ar    1  UNL1        0.0297
     21 C          62.3573   83.4327   13.7077 C.ar    1  UNL1        0.1415
     22 F          61.7925   84.1263   14.9117 F       1  UNL1       -0.2041
     23 O          63.5197   91.8833   10.1012 O.3     1  UNL1       -0.3748
     24 C          62.6509   91.2150   11.1254 C.3     1  UNL1        0.2017
     25 H          62.9627   92.2702    9.4076 H       1  UNL1        0.2110
@<TRIPOS>BOND
     1    23    24    1
     2    24     1    1
     3     1     2   ar
     4     2     3   ar
     5     3     4   ar
     6     4     5   ar
     7     5     6    1
     8     6     7   ar
     9     7     8   ar
    10     8     9   ar
    11     9    10    1
    12     9    11   ar
    13    11    12   ar
    14    12    13    1
    15    13    16    1
    16    16    17   ar
    17    17    18   ar
    18    18    19   ar
    19    19    20   ar
    20    20    21   ar
    21    21    22    1
    22    13    14    2
    23    14    15    1
    24     5     1   ar
    25    12     6   ar
    26    21    16   ar
    27    15     4    1
    28    23    25    1
@<TRIPOS>MOLECULE
*****
 25 28 0 0 0
SMALL
GASTEIGER

@<TRIPOS>ATOM
      1 C          63.4689   89.2698   13.5636 C.ar    1  UNL1        0.1540
      2 N          62.4541   88.5143   12.7578 N.ar    1  UNL1       -0.2268
      3 C          62.3202   89.1931   11.4269 C.ar    1  UNL1        0.1153
      4 C          63.2522   90.3682   11.4101 C.ar    1  UNL1        0.0861
      5 N          63.9622   90.4156   12.7306 N.ar    1  UNL1       -0.2933
      6 C          64.9908   91.3992   13.2048 C.ar    1  UNL1        0.0664
      7 C          65.4483   91.0848   14.5982 C.ar    1  UNL1        0.0185
      8 C          66.4784   91.9495   15.2624 C.ar    1  UNL1        0.0129
      9 C          67.0511   93.1285   14.5330 C.ar    1  UNL1        0.0578
     10 CL         68.0812   93.9932   15.1972 Cl      1  UNL1       -0.0822
     11 C          66.5936   93.4429   13.1395 C.ar    1  UNL1        0.0143
     12 C          65.5634   92.5782   12.4754 C.ar    1  UNL1        0.0343
     13 C          65.2489   93.0649   11.0918 C.2     1  UNL1        0.0800
     14 N          64.2841   92.4928   10.0959 N.2     1  UNL1       -0.2638
     15 C          63.3955   91.2927   10.2376 C.3     1  UNL1        0.1707
     16 C          65.9983   94.2851   10.6452 C.ar    1  UNL1        0.0447
     17 C          65.6302   95.6330   11.1908 C.ar    1  UNL1        0.0037
     18 C          66.3797   96.8531   10.7441 C.ar    1  UNL1        0.0002
     19 C          67.4971   96.7255    9.7518 C.ar    1  UNL1        0.0023
     20 C          67.8653   95.3776    9.2061 C.ar    1  UNL1        0.0297
     21 C          67.1159   94.1574    9.6527 C.ar    1  UNL1        0.1415
     22 F          67.4840   92.8096    9.1071 F       1  UNL1       -0.2041
     23 O          62.9461   89.0512   16.0991 O.3     1  UNL1       -0.3748
     24 C          63.9125   88.9378   14.9574 C.3     1  UNL1        0.2017
     25 H          63.3903   88.8020   16.9246 H       1  UNL1        0.2110
@<TRIPOS>BOND
     1    23    24    1
     2    24     1    1
     3     1     2   ar
     4     2     3   ar
     5     3     4   ar
     6     4     5   ar
     7     5     6    1
     8     6     7   ar
     9     7     8   ar
    10     8     9   ar
    11     9    10    1
    12     9    11   ar
    13    11    12   ar
    14    12    13    1
    15    13    16    1
    16    16    17   ar
    17    17    18   ar
    18    18    19   ar
    19    19    20   ar
    20    20    21   ar
    21    21    22    1
    22    13    14    2
    23    14    15    1
    24     5     1   ar
    25    12     6   ar
    26    21    16   ar
    27    15     4    1
    28    23    25    1
@<TRIPOS>MOLECULE
*****
 25 28 0 0 0
SMALL
GASTEIGER

@<TRIPOS>ATOM
      1 C          63.9293   88.6072   14.4459 C.ar    1  UNL1        0.1540
      2 N          64.0497   90.1007   14.5153 N.ar    1  UNL1       -0.2268
      3 C          63.6358   90.6614   13.1870 C.ar    1  UNL1        0.1153
      4 C          63.2595   89.5144   12.2967 C.ar    1  UNL1        0.0861
      5 N          63.4409   88.2448   13.0746 N.ar    1  UNL1       -0.2933
      6 C          63.1987   86.8328   12.6301 C.ar    1  UNL1        0.0664
      7 C          63.5060   85.8535   13.7240 C.ar    1  UNL1        0.0185
      8 C          63.3298   84.3832   13.4856 C.ar    1  UNL1        0.0129
      9 C          62.8463   83.8920   12.1533 C.ar    1  UNL1        0.0578
     10 CL         62.6701   82.4216   11.9149 Cl      1  UNL1       -0.0822
     11 C          62.5389   84.8713   11.0594 C.ar    1  UNL1        0.0143
     12 C          62.7151   86.3417   11.2979 C.ar    1  UNL1        0.0343
     13 C          62.3544   87.1413   10.0811 C.2     1  UNL1        0.0800
     14 N          62.3882   88.6294    9.8959 N.2     1  UNL1       -0.2638
     15 C          62.7910   89.6856   10.8820 C.3     1  UNL1        0.1707
     16 C          61.8999   86.3477    8.8921 C.ar    1  UNL1        0.0447
     17 C          62.8827   85.5096    8.1294 C.ar    1  UNL1        0.0037
     18 C          62.4281   84.7161    6.9404 C.ar    1  UNL1        0.0002
     19 C          60.9907   84.7606    6.5141 C.ar    1  UNL1        0.0023
     20 C          60.0078   85.5987    7.2768 C.ar    1  UNL1        0.0297
     21 C          60.4624   86.3922    8.4658 C.ar    1  UNL1        0.1415
     22 F          59.4795   87.2302    9.2284 F       1  UNL1       -0.2041
     23 O          63.2624   87.4432   16.6708 O.3     1  UNL1       -0.3748
     24 C          64.2423   87.6450   15.5531 C.3     1  UNL1        0.2017
     25 H          63.6165   86.7933   17.2978 H       1  UNL1        0.2110
@<TRIPOS>BOND
     1    23    24    1
     2    24     1    1
     3     1     2   ar
     4     2     3   ar
     5     3     4   ar
     6     4     5   ar
     7     5     6    1
     8     6     7   ar
     9     7     8   ar
    10     8     9   ar
    11     9    10    1
    12     9    11   ar
    13    11    12   ar
    14    12    13    1
    15    13    16    1
    16    16    17   ar
    17    17    18   ar
    18    18    19   ar
    19    19    20   ar
    20    20    21   ar
    21    21    22    1
    22    13    14    2
    23    14    15    1
    24     5     1   ar
    25    12     6   ar
    26    21    16   ar
    27    15     4    1
    28    23    25    1
@<TRIPOS>MOLECULE
*****
 25 28 0 0 0
SMALL
GASTEIGER

@<TRIPOS>ATOM
      1 C          62.8359   90.1740   11.8261 C.ar    1  UNL1        0.1540
      2 N          62.2042   90.8634   10.6533 N.ar    1  UNL1       -0.2268
      3 C          61.7052   89.8096    9.7097 C.ar    1  UNL1        0.1153
      4 C          62.0285   88.4689   10.2993 C.ar    1  UNL1        0.0861
      5 N          62.7273   88.6939   11.6073 N.ar    1  UNL1       -0.2933
      6 C          63.2513   87.6749   12.5754 C.ar    1  UNL1        0.0664
      7 C          63.8858   88.3272   13.7678 C.ar    1  UNL1        0.0185
      8 C          64.4749   87.4836   14.8592 C.ar    1  UNL1        0.0129
      9 C          64.4295   85.9877   14.7582 C.ar    1  UNL1        0.0578
     10 CL         65.0186   85.1441   15.8497 Cl      1  UNL1       -0.0822
     11 C          63.7950   85.3354   13.5658 C.ar    1  UNL1        0.0143
     12 C          63.2059   86.1790   12.4744 C.ar    1  UNL1        0.0343
     13 C          62.6253   85.3327   11.3804 C.2     1  UNL1        0.0800
     14 N          61.9466   85.7732   10.1173 N.2     1  UNL1       -0.2638
     15 C          61.6811   87.1690    9.6362 C.3     1  UNL1        0.1707
     16 C          62.7382   83.8498   11.5754 C.ar    1  UNL1        0.0447
     17 C          62.1227   83.2027   12.7807 C.ar    1  UNL1        0.0037
     18 C          62.2356   81.7197   12.9756 C.ar    1  UNL1        0.0002
     19 C          62.9640   80.8838   11.9654 C.ar    1  UNL1        0.0023
     20 C          63.5795   81.5308   10.7601 C.ar    1  UNL1        0.0297
     21 C          63.4666   83.0138   10.5652 C.ar    1  UNL1        0.1415
     22 F          64.0821   83.6607    9.3600 F       1  UNL1       -0.2041
     23 O          64.4252   91.9811   12.8052 O.3     1  UNL1       -0.3748
     24 C          63.4656   90.8463   13.0098 C.3     1  UNL1        0.2017
     25 H          64.7376   92.2996   13.6665 H       1  UNL1        0.2110
@<TRIPOS>BOND
     1    23    24    1
     2    24     1    1
     3     1     2   ar
     4     2     3   ar
     5     3     4   ar
     6     4     5   ar
     7     5     6    1
     8     6     7   ar
     9     7     8   ar
    10     8     9   ar
    11     9    10    1
    12     9    11   ar
    13    11    12   ar
    14    12    13    1
    15    13    16    1
    16    16    17   ar
    17    17    18   ar
    18    18    19   ar
    19    19    20   ar
    20    20    21   ar
    21    21    22    1
    22    13    14    2
    23    14    15    1
    24     5     1   ar
    25    12     6   ar
    26    21    16   ar
    27    15     4    1
    28    23    25    1
@<TRIPOS>MOLECULE
*****
 25 28 0 0 0
SMALL
GASTEIGER

@<TRIPOS>ATOM
      1 C          62.4732   84.8625   11.2503 C.ar    1  UNL1        0.1540
      2 N          62.6180   83.5133   11.8895 N.ar    1  UNL1       -0.2268
      3 C          63.2174   83.7072   13.2508 C.ar    1  UNL1        0.1153
      4 C          63.4430   85.1762   13.4529 C.ar    1  UNL1        0.0861
      5 N          62.9831   85.8903   12.2166 N.ar    1  UNL1       -0.2933
      6 C          62.9986   87.3618   11.9259 C.ar    1  UNL1        0.0664
      7 C          62.4452   87.6572   10.5635 C.ar    1  UNL1        0.0185
      8 C          62.3710   89.0734   10.0750 C.ar    1  UNL1        0.0129
      9 C          62.8503   90.1943   10.9490 C.ar    1  UNL1        0.0578
     10 CL         62.7762   91.6107   10.4604 Cl      1  UNL1       -0.0822
     11 C          63.4038   89.8990   12.3114 C.ar    1  UNL1        0.0143
     12 C          63.4779   88.4827   12.7999 C.ar    1  UNL1        0.0343
     13 C          64.0600   88.4089   14.1804 C.2     1  UNL1        0.0800
     14 N          64.3067   87.1961   15.0279 N.2     1  UNL1       -0.2638
     15 C          64.0321   85.7574   14.7041 C.3     1  UNL1        0.1707
     16 C          64.4467   89.7216   14.7947 C.ar    1  UNL1        0.0447
     17 C          65.6321   90.4756   14.2689 C.ar    1  UNL1        0.0037
     18 C          66.0187   91.7883   14.8832 C.ar    1  UNL1        0.0002
     19 C          65.2200   92.3470   16.0232 C.ar    1  UNL1        0.0023
     20 C          64.0346   91.5931   16.5490 C.ar    1  UNL1        0.0297
     21 C          63.6479   90.2804   15.9348 C.ar    1  UNL1        0.1415
     22 F          62.4626   89.5265   16.4605 F       1  UNL1       -0.2041
     23 O          62.8101   85.0642    8.6820 O.3     1  UNL1       -0.3748
     24 C          61.9164   85.1359    9.8847 C.3     1  UNL1        0.2017
     25 H          62.2961   85.2665    7.8847 H       1  UNL1        0.2110
@<TRIPOS>BOND
     1    23    24    1
     2    24     1    1
     3     1     2   ar
     4     2     3   ar
     5     3     4   ar
     6     4     5   ar
     7     5     6    1
     8     6     7   ar
     9     7     8   ar
    10     8     9   ar
    11     9    10    1
    12     9    11   ar
    13    11    12   ar
    14    12    13    1
    15    13    16    1
    16    16    17   ar
    17    17    18   ar
    18    18    19   ar
    19    19    20   ar
    20    20    21   ar
    21    21    22    1
    22    13    14    2
    23    14    15    1
    24     5     1   ar
    25    12     6   ar
    26    21    16   ar
    27    15     4    1
    28    23    25    1
@<TRIPOS>MOLECULE
*****
 25 28 0 0 0
SMALL
GASTEIGER

@<TRIPOS>ATOM
      1 C          64.0627   86.9761   15.1732 C.ar    1  UNL1        0.1540
      2 N          64.2943   85.7898   16.0615 N.ar    1  UNL1       -0.2268
      3 C          63.9130   84.5568   15.2971 C.ar    1  UNL1        0.1153
      4 C          63.4457   84.9810   13.9364 C.ar    1  UNL1        0.0861
      5 N          63.5382   86.4762   13.8597 N.ar    1  UNL1       -0.2933
      6 C          63.1883   87.3774   12.7128 C.ar    1  UNL1        0.0664
      7 C          63.4303   88.8178   13.0540 C.ar    1  UNL1        0.0185
      8 C          63.1435   89.8868   12.0416 C.ar    1  UNL1        0.0129
      9 C          62.6146   89.5153   10.6880 C.ar    1  UNL1        0.0578
     10 CL         62.3278   90.5844    9.6756 Cl      1  UNL1       -0.0822
     11 C          62.3725   88.0749   10.3468 C.ar    1  UNL1        0.0143
     12 C          62.6594   87.0059   11.3592 C.ar    1  UNL1        0.0343
     13 C          62.3498   85.6415   10.8182 C.2     1  UNL1        0.0800
     14 N          62.4927   84.3116   11.4972 N.2     1  UNL1       -0.2638
     15 C          62.9804   84.0177   12.8849 C.3     1  UNL1        0.1707
     16 C          61.8284   85.6017    9.4123 C.ar    1  UNL1        0.0447
     17 C          60.4946   86.2074    9.0896 C.ar    1  UNL1        0.0037
     18 C          59.9733   86.1677    7.6836 C.ar    1  UNL1        0.0002
     19 C          60.7856   85.5222    6.6005 C.ar    1  UNL1        0.0023
     20 C          62.1195   84.9165    6.9231 C.ar    1  UNL1        0.0297
     21 C          62.6408   84.9562    8.3291 C.ar    1  UNL1        0.1415
     22 F          63.9746   84.3506    8.6517 F       1  UNL1       -0.2041
     23 O          63.3794   89.1206   16.4709 O.3     1  UNL1       -0.3748
     24 C          64.3117   88.4103   15.5348 C.3     1  UNL1        0.2017
     25 H          63.6820   90.0334   16.5977 H       1  UNL1        0.2110
@<TRIPOS>BOND
     1    23    24    1
     2    24     1    1
     3     1     2   ar
     4     2     3   ar
     5     3     4   ar
     6     4     5   ar
     7     5     6    1
     8     6     7   ar
     9     7     8   ar
    10     8     9   ar
    11     9    10    1
    12     9    11   ar
    13    11    12   ar
    14    12    13    1
    15    13    16    1
    16    16    17   ar
    17    17    18   ar
    18    18    19   ar
    19    19    20   ar
    20    20    21   ar
    21    21    22    1
    22    13    14    2
    23    14    15    1
    24     5     1   ar
    25    12     6   ar
    26    21    16   ar
    27    15     4    1
    28    23    25    1
@<TRIPOS>MOLECULE
*****
 25 28 0 0 0
SMALL
GASTEIGER

@<TRIPOS>ATOM
      1 C          61.2647   87.0782    9.8004 C.ar    1  UNL1        0.1540
      2 N          60.5119   87.7630    8.6984 N.ar    1  UNL1       -0.2268
      3 C          60.6660   89.2437    8.8822 C.ar    1  UNL1        0.1153
      4 C          61.5140   89.4740   10.0978 C.ar    1  UNL1        0.0861
      5 N          61.8840   88.1357   10.6653 N.ar    1  UNL1       -0.2933
      6 C          62.7178   87.8306   11.8743 C.ar    1  UNL1        0.0664
      7 C          62.8440   86.3522   12.0941 C.ar    1  UNL1        0.0185
      8 C          63.6399   85.8317   13.2541 C.ar    1  UNL1        0.0129
      9 C          64.3097   86.7896   14.1942 C.ar    1  UNL1        0.0578
     10 CL         65.1057   86.2690   15.3542 Cl      1  UNL1       -0.0822
     11 C          64.1835   88.2680   13.9744 C.ar    1  UNL1        0.0143
     12 C          63.3876   88.7885   12.8145 C.ar    1  UNL1        0.0343
     13 C          63.3889   90.2881   12.7777 C.2     1  UNL1        0.0800
     14 N          62.7209   91.2001   11.7919 N.2     1  UNL1       -0.2638
     15 C          61.8864   90.8378   10.5992 C.3     1  UNL1        0.1707
     16 C          64.1604   90.9651   13.8716 C.ar    1  UNL1        0.0447
     17 C          63.6651   90.9056   15.2863 C.ar    1  UNL1        0.0037
     18 C          64.4366   91.5827   16.3801 C.ar    1  UNL1        0.0002
     19 C          65.7032   92.3192   16.0593 C.ar    1  UNL1        0.0023
     20 C          66.1986   92.3788   14.6446 C.ar    1  UNL1        0.0297
     21 C          65.4271   91.7017   13.5508 C.ar    1  UNL1        0.1415
     22 F          65.9224   91.7612   12.1362 F       1  UNL1       -0.2041
     23 O          62.5276   84.8433    9.4004 O.3     1  UNL1       -0.3748
     24 C          61.3782   85.5962   10.0020 C.3     1  UNL1        0.2017
     25 H          62.4507   83.9026    9.6245 H       1  UNL1        0.2110
@<TRIPOS>BOND
     1    23    24    1
     2    24     1    1
     3     1     2   ar
     4     2     3   ar
     5     3     4   ar
     6     4     5   ar
     7     5     6    1
     8     6     7   ar
     9     7     8   ar
    10     8     9   ar
    11     9    10    1
    12     9    11   ar
    13    11    12   ar
    14    12    13    1
    15    13    16    1
    16    16    17   ar
    17    17    18   ar
    18    18    19   ar
    19    19    20   ar
    20    20    21   ar
    21    21    22    1
    22    13    14    2
    23    14    15    1
    24     5     1   ar
    25    12     6   ar
    26    21    16   ar
    27    15     4    1
    28    23    25    1
@<TRIPOS>MOLECULE
*****
 25 28 0 0 0
SMALL
GASTEIGER

@<TRIPOS>ATOM
      1 C          45.9864   80.8295   18.1796 C.ar    1  UNL1        0.1540
      2 N          45.0409   81.8074   17.5474 N.ar    1  UNL1       -0.2268
      3 C          44.0599   81.0336   16.7176 C.ar    1  UNL1        0.1153
      4 C          44.3990   79.5774   16.8369 C.ar    1  UNL1        0.0861
      5 N          45.5897   79.4512   17.7404 N.ar    1  UNL1       -0.2933
      6 C          46.3084   78.2074   18.1724 C.ar    1  UNL1        0.0664
      7 C          47.4550   78.5262   19.0854 C.ar    1  UNL1        0.0185
      8 C          48.3072   77.4201   19.6334 C.ar    1  UNL1        0.0129
      9 C          48.0128   75.9953   19.2684 C.ar    1  UNL1        0.0578
     10 CL         48.8650   74.8892   19.8165 Cl      1  UNL1       -0.0822
     11 C          46.8662   75.6765   18.3554 C.ar    1  UNL1        0.0143
     12 C          46.0140   76.7826   17.8074 C.ar    1  UNL1        0.0343
     13 C          44.9281   76.2497   16.9203 C.2     1  UNL1        0.0800
     14 N          43.8685   77.0099   16.1791 N.2     1  UNL1       -0.2638
     15 C          43.6331   78.4908   16.1420 C.3     1  UNL1        0.1707
     16 C          44.8978   74.7594   16.7522 C.ar    1  UNL1        0.0447
     17 C          45.4027   74.1373   15.4840 C.ar    1  UNL1        0.0037
     18 C          45.3724   72.6470   15.3160 C.ar    1  UNL1        0.0002
     19 C          44.8374   71.7789   16.4159 C.ar    1  UNL1        0.0023
     20 C          44.3325   72.4010   17.6841 C.ar    1  UNL1        0.0297
     21 C          44.3627   73.8913   17.8522 C.ar    1  UNL1        0.1415
     22 F          43.8579   74.5133   19.1203 F       1  UNL1       -0.2041
     23 O          47.3897   82.5993   19.4636 O.3     1  UNL1       -0.3748
     24 C          47.1280   81.1700   19.0909 C.3     1  UNL1        0.2017
     25 H          48.1577   82.6440   20.0543 H       1  UNL1        0.2110
@<TRIPOS>BOND
     1    23    24    1
     2    24     1    1
     3     1     2   ar
     4     2     3   ar
     5     3     4   ar
     6     4     5   ar
     7     5     6    1
     8     6     7   ar
     9     7     8   ar
    10     8     9   ar
    11     9    10    1
    12     9    11   ar
    13    11    12   ar
    14    12    13    1
    15    13    16    1
    16    16    17   ar
    17    17    18   ar
    18    18    19   ar
    19    19    20   ar
    20    20    21   ar
    21    21    22    1
    22    13    14    2
    23    14    15    1
    24     5     1   ar
    25    12     6   ar
    26    21    16   ar
    27    15     4    1
    28    23    25    1
