@<TRIPOS>MOLECULE
*****
 28 31 0 0 0
SMALL
GASTEIGER

@<TRIPOS>ATOM
      1 C          64.9962   92.0011   12.1813 C.ar    1  UNL1       -0.0004
      2 C          64.5169   91.2021   13.3568 C.ar    1  UNL1       -0.0011
      3 C          63.3463   90.2760   13.2070 C.ar    1  UNL1        0.0144
      4 C          62.6552   90.1490   11.8818 C.ar    1  UNL1        0.0497
      5 C          63.1346   90.9480   10.7063 C.ar    1  UNL1        0.0144
      6 C          64.3051   91.8740   10.8560 C.ar    1  UNL1       -0.0011
      7 N          61.4848   89.2230   11.7320 N.pl3   1  UNL1       -0.2927
      8 H          60.7279   89.2808   12.3590 H       1  UNL1        0.1541
      9 C          61.4674   88.2087   10.6271 C.ar    1  UNL1        0.1635
     10 N          62.6192   87.3458   10.2041 N.ar    1  UNL1       -0.2240
     11 C          62.1588   86.4831    9.0667 C.ar    1  UNL1        0.0892
     12 C          62.8619   85.4399    8.2498 C.ar    1  UNL1        0.0197
     13 C          62.1288   84.7264    7.1528 C.ar    1  UNL1        0.0016
     14 C          60.6925   85.0561    6.8727 C.ar    1  UNL1        0.0006
     15 C          59.9894   86.0993    7.6896 C.ar    1  UNL1        0.0081
     16 C          60.7226   86.8128    8.7866 C.ar    1  UNL1        0.0497
     17 S          60.2953   87.8793    9.7510 S.2     1  UNL1       -0.0515
     18 C          66.1667   92.9272   12.3310 C.3     1  UNL1        0.1240
     19 N          67.0065   92.8797   13.5730 N.ar    1  UNL1       -0.3045
     20 C          66.8805   93.7911   14.7578 C.ar    1  UNL1        0.0983
     21 C          67.9159   93.3872   15.7653 C.ar    1  UNL1        0.1193
     22 N          68.6817   92.2263   15.2032 N.ar    1  UNL1       -0.2223
     23 C          68.1196   91.9127   13.8483 C.ar    1  UNL1        0.1788
     24 C          65.8768   95.2662   11.2380 C.3     1  UNL1        0.0197
     25 C          66.4974   93.9006   11.2388 C.3     1  UNL1        0.0827
     26 N          67.4487   93.5085   10.1473 N.3     1  UNL1       -0.2696
     27 C          67.7991   94.4906    9.0691 C.3     1  UNL1        0.0897
     28 C          68.0496   92.1342   10.1340 C.3     1  UNL1        0.0897
@<TRIPOS>BOND
     1    25    24    1
     2    25    18    1
     3    18     1    1
     4     1     2   ar
     5     2     3   ar
     6     3     4   ar
     7     4     7    1
     8     7     9    1
     9     9    10   ar
    10    10    11   ar
    11    11    12   ar
    12    12    13   ar
    13    13    14   ar
    14    14    15   ar
    15    15    16   ar
    16    16    17   ar
    17     4     5   ar
    18     5     6   ar
    19    18    19    1
    20    19    20   ar
    21    20    21   ar
    22    21    22   ar
    23    22    23   ar
    24    25    26    1
    25    26    27    1
    26    26    28    1
    27     6     1   ar
    28    23    19   ar
    29    17     9   ar
    30    16    11   ar
    31     7     8    1
@<TRIPOS>MOLECULE
*****
 28 31 0 0 0
SMALL
GASTEIGER

@<TRIPOS>ATOM
      1 C          64.9966   92.0148   12.2083 C.ar    1  UNL1       -0.0004
      2 C          64.5776   91.2086   13.4018 C.ar    1  UNL1       -0.0011
      3 C          63.4362   90.2418   13.2907 C.ar    1  UNL1        0.0144
      4 C          62.7137   90.0811   11.9860 C.ar    1  UNL1        0.0497
      5 C          63.1327   90.8874   10.7924 C.ar    1  UNL1        0.0144
      6 C          64.2741   91.8542   10.9036 C.ar    1  UNL1       -0.0011
      7 N          61.5723   89.1143   11.8748 N.pl3   1  UNL1       -0.2927
      8 H          60.8565   89.1180   12.5507 H       1  UNL1        0.1541
      9 C          61.5215   88.1419   10.7339 C.ar    1  UNL1        0.1635
     10 N          62.6484   87.2673   10.2699 N.ar    1  UNL1       -0.2240
     11 C          62.1582   86.4582    9.1058 C.ar    1  UNL1        0.0892
     12 C          62.8292   85.4288    8.2455 C.ar    1  UNL1        0.0197
     13 C          62.0702   84.7739    7.1297 C.ar    1  UNL1        0.0016
     14 C          60.6404   85.1484    6.8742 C.ar    1  UNL1        0.0006
     15 C          59.9694   86.1778    7.7345 C.ar    1  UNL1        0.0081
     16 C          60.7284   86.8327    8.8503 C.ar    1  UNL1        0.0497
     17 S          60.3349   87.8732    9.8565 S.2     1  UNL1       -0.0515
     18 C          66.1380   92.9817   12.3194 C.3     1  UNL1        0.1240
     19 N          66.4445   93.9138   11.1849 N.ar    1  UNL1       -0.3045
     20 C          67.1642   93.5547    9.9186 C.ar    1  UNL1        0.0983
     21 C          67.2496   94.7877    9.0685 C.ar    1  UNL1        0.1193
     22 N          66.5828   95.9086    9.8093 N.ar    1  UNL1       -0.2223
     23 C          66.0853   95.3686   11.1173 C.ar    1  UNL1        0.1788
     24 C          66.5128   93.8061   14.7545 C.3     1  UNL1        0.0197
     25 C          66.9729   93.0165   13.5651 C.3     1  UNL1        0.0827
     26 N          68.2679   92.2616   13.6214 N.3     1  UNL1       -0.2696
     27 C          69.0926   92.2794   14.8742 C.3     1  UNL1        0.0897
     28 C          68.7382   91.4890   12.4248 C.3     1  UNL1        0.0897
@<TRIPOS>BOND
     1    25    24    1
     2    25    18    1
     3    18     1    1
     4     1     2   ar
     5     2     3   ar
     6     3     4   ar
     7     4     7    1
     8     7     9    1
     9     9    10   ar
    10    10    11   ar
    11    11    12   ar
    12    12    13   ar
    13    13    14   ar
    14    14    15   ar
    15    15    16   ar
    16    16    17   ar
    17     4     5   ar
    18     5     6   ar
    19    18    19    1
    20    19    20   ar
    21    20    21   ar
    22    21    22   ar
    23    22    23   ar
    24    25    26    1
    25    26    27    1
    26    26    28    1
    27     6     1   ar
    28    23    19   ar
    29    17     9   ar
    30    16    11   ar
    31     7     8    1
@<TRIPOS>MOLECULE
*****
 28 31 0 0 0
SMALL
GASTEIGER

@<TRIPOS>ATOM
      1 C          65.0475   91.7733   12.0089 C.ar    1  UNL1       -0.0004
      2 C          64.7516   90.8175   13.1263 C.ar    1  UNL1       -0.0011
      3 C          63.7028   89.7596   12.9505 C.ar    1  UNL1        0.0144
      4 C          62.9499   89.6576   11.6571 C.ar    1  UNL1        0.0497
      5 C          63.2459   90.6135   10.5396 C.ar    1  UNL1        0.0144
      6 C          64.2947   91.6713   10.7155 C.ar    1  UNL1       -0.0011
      7 N          61.9011   88.5997   11.4812 N.pl3   1  UNL1       -0.2927
      8 H          60.9504   88.8516   11.4378 H       1  UNL1        0.1541
      9 C          62.3009   87.1582   11.3714 C.ar    1  UNL1        0.1635
     10 N          62.6111   86.2396   12.5160 N.ar    1  UNL1       -0.2240
     11 C          62.9625   84.8958   11.9497 C.ar    1  UNL1        0.0892
     12 C          63.3552   83.6033   12.6019 C.ar    1  UNL1        0.0197
     13 C          63.6549   82.3989   11.7596 C.ar    1  UNL1        0.0016
     14 C          63.5620   82.4870   10.2651 C.ar    1  UNL1        0.0006
     15 C          63.1693   83.7794    9.6129 C.ar    1  UNL1        0.0081
     16 C          62.8696   84.9838   10.4552 C.ar    1  UNL1        0.0497
     17 S          62.4607   86.3820   10.0978 S.2     1  UNL1       -0.0515
     18 C          66.0964   92.8312   12.1847 C.3     1  UNL1        0.1240
     19 N          66.8948   92.8922   13.4531 N.ar    1  UNL1       -0.3045
     20 C          66.6608   93.8331   14.5978 C.ar    1  UNL1        0.0983
     21 C          67.6888   93.5454   15.6517 C.ar    1  UNL1        0.1193
     22 N          68.5580   92.4269   15.1584 N.ar    1  UNL1       -0.2223
     23 C          68.0672   92.0232   13.7996 C.ar    1  UNL1        0.1788
     24 C          65.5406   95.0914   11.0305 C.3     1  UNL1        0.0197
     25 C          66.3468   93.8281   11.0922 C.3     1  UNL1        0.0827
     26 N          67.4034   93.5615   10.0615 N.3     1  UNL1       -0.2696
     27 C          67.8306   94.6531    9.1257 C.3     1  UNL1        0.0897
     28 C          68.0328   92.2033    9.9664 C.3     1  UNL1        0.0897
@<TRIPOS>BOND
     1    25    24    1
     2    25    18    1
     3    18     1    1
     4     1     2   ar
     5     2     3   ar
     6     3     4   ar
     7     4     7    1
     8     7     9    1
     9     9    10   ar
    10    10    11   ar
    11    11    12   ar
    12    12    13   ar
    13    13    14   ar
    14    14    15   ar
    15    15    16   ar
    16    16    17   ar
    17     4     5   ar
    18     5     6   ar
    19    18    19    1
    20    19    20   ar
    21    20    21   ar
    22    21    22   ar
    23    22    23   ar
    24    25    26    1
    25    26    27    1
    26    26    28    1
    27     6     1   ar
    28    23    19   ar
    29    17     9   ar
    30    16    11   ar
    31     7     8    1
@<TRIPOS>MOLECULE
*****
 28 31 0 0 0
SMALL
GASTEIGER

@<TRIPOS>ATOM
      1 C          64.9071   91.5472   12.3555 C.ar    1  UNL1       -0.0004
      2 C          64.1248   91.5371   11.0757 C.ar    1  UNL1       -0.0011
      3 C          63.1153   90.4569   10.8222 C.ar    1  UNL1        0.0144
      4 C          62.8883   89.3868   11.8486 C.ar    1  UNL1        0.0497
      5 C          63.6707   89.3970   13.1284 C.ar    1  UNL1        0.0144
      6 C          64.6801   90.4772   13.3818 C.ar    1  UNL1       -0.0011
      7 N          61.8789   88.3066   11.5952 N.pl3   1  UNL1       -0.2927
      8 H          60.9267   88.5361   11.4959 H       1  UNL1        0.1541
      9 C          62.3203   86.8766   11.4930 C.ar    1  UNL1        0.1635
     10 N          62.6645   85.9759   12.6420 N.ar    1  UNL1       -0.2240
     11 C          63.0519   84.6389   12.0830 C.ar    1  UNL1        0.0892
     12 C          63.4865   83.3633   12.7417 C.ar    1  UNL1        0.0197
     13 C          63.8164   82.1623   11.9059 C.ar    1  UNL1        0.0016
     14 C          63.7117   82.2367   10.4115 C.ar    1  UNL1        0.0006
     15 C          63.2771   83.5123    9.7527 C.ar    1  UNL1        0.0081
     16 C          62.9472   84.7134   10.5885 C.ar    1  UNL1        0.0497
     17 S          62.4951   86.0964   10.2239 S.2     1  UNL1       -0.0515
     18 C          65.9166   92.6275   12.6089 C.3     1  UNL1        0.1240
     19 N          66.1939   93.6573   11.5541 N.ar    1  UNL1       -0.3045
     20 C          66.6786   93.3841   10.1610 C.ar    1  UNL1        0.0983
     21 C          66.8195   94.6990    9.4531 C.ar    1  UNL1        0.1193
     22 N          66.4219   95.7848   10.4086 N.ar    1  UNL1       -0.2223
     23 C          66.0352   95.1410   11.7070 C.ar    1  UNL1        0.1788
     24 C          65.9135   93.0367   15.1745 C.3     1  UNL1        0.0197
     25 C          66.6486   92.6779   13.9172 C.3     1  UNL1        0.0827
     26 N          68.1157   92.3696   13.9681 N.3     1  UNL1       -0.2696
     27 C          68.9278   92.7819   15.1599 C.3     1  UNL1        0.0897
     28 C          68.7707   91.6491   12.8271 C.3     1  UNL1        0.0897
@<TRIPOS>BOND
     1    25    24    1
     2    25    18    1
     3    18     1    1
     4     1     2   ar
     5     2     3   ar
     6     3     4   ar
     7     4     7    1
     8     7     9    1
     9     9    10   ar
    10    10    11   ar
    11    11    12   ar
    12    12    13   ar
    13    13    14   ar
    14    14    15   ar
    15    15    16   ar
    16    16    17   ar
    17     4     5   ar
    18     5     6   ar
    19    18    19    1
    20    19    20   ar
    21    20    21   ar
    22    21    22   ar
    23    22    23   ar
    24    25    26    1
    25    26    27    1
    26    26    28    1
    27     6     1   ar
    28    23    19   ar
    29    17     9   ar
    30    16    11   ar
    31     7     8    1
@<TRIPOS>MOLECULE
*****
 28 31 0 0 0
SMALL
GASTEIGER

@<TRIPOS>ATOM
      1 C          62.5419   88.8469   11.4426 C.ar    1  UNL1       -0.0004
      2 C          63.2936   88.7084   12.7333 C.ar    1  UNL1       -0.0011
      3 C          64.1711   89.8260   13.2139 C.ar    1  UNL1        0.0144
      4 C          64.2970   91.0821   12.4038 C.ar    1  UNL1        0.0497
      5 C          63.5453   91.2206   11.1130 C.ar    1  UNL1        0.0144
      6 C          62.6678   90.1030   10.6325 C.ar    1  UNL1       -0.0011
      7 N          65.1745   92.1997   12.8843 N.pl3   1  UNL1       -0.2927
      8 H          65.3538   92.3059   13.8465 H       1  UNL1        0.1541
      9 C          65.7789   93.1555   11.8988 C.ar    1  UNL1        0.1635
     10 N          65.8549   94.6460   12.0491 N.ar    1  UNL1       -0.2240
     11 C          66.5363   95.2004   10.8332 C.ar    1  UNL1        0.0892
     12 C          66.8872   96.6021   10.4307 C.ar    1  UNL1        0.0197
     13 C          67.5831   96.8559    9.1264 C.ar    1  UNL1        0.0016
     14 C          67.9282   95.7080    8.2246 C.ar    1  UNL1        0.0006
     15 C          67.5773   94.3063    8.6271 C.ar    1  UNL1        0.0081
     16 C          66.8814   94.0525    9.9314 C.ar    1  UNL1        0.0497
     17 S          66.4133   92.7887   10.5900 S.2     1  UNL1       -0.0515
     18 C          61.6644   87.7293   10.9620 C.3     1  UNL1        0.1240
     19 N          62.2020   86.3307   10.8918 N.ar    1  UNL1       -0.3045
     20 C          62.3307   85.3768   12.0423 C.ar    1  UNL1        0.0983
     21 C          62.9136   84.0970   11.5202 C.ar    1  UNL1        0.1193
     22 N          63.1452   84.2600   10.0472 N.ar    1  UNL1       -0.2223
     23 C          62.7054   85.6405    9.6588 C.ar    1  UNL1        0.1788
     24 C          59.2161   88.3288   11.5915 C.3     1  UNL1        0.0197
     25 C          60.2493   88.0103   10.5517 C.3     1  UNL1        0.0827
     26 N          59.8673   87.9727    9.1017 N.3     1  UNL1       -0.2696
     27 C          59.3351   86.7065    8.4988 C.3     1  UNL1        0.0897
     28 C          60.0174   89.2014    8.2545 C.3     1  UNL1        0.0897
@<TRIPOS>BOND
     1    25    24    1
     2    25    18    1
     3    18     1    1
     4     1     2   ar
     5     2     3   ar
     6     3     4   ar
     7     4     7    1
     8     7     9    1
     9     9    10   ar
    10    10    11   ar
    11    11    12   ar
    12    12    13   ar
    13    13    14   ar
    14    14    15   ar
    15    15    16   ar
    16    16    17   ar
    17     4     5   ar
    18     5     6   ar
    19    18    19    1
    20    19    20   ar
    21    20    21   ar
    22    21    22   ar
    23    22    23   ar
    24    25    26    1
    25    26    27    1
    26    26    28    1
    27     6     1   ar
    28    23    19   ar
    29    17     9   ar
    30    16    11   ar
    31     7     8    1
@<TRIPOS>MOLECULE
*****
 28 31 0 0 0
SMALL
GASTEIGER

@<TRIPOS>ATOM
      1 C          62.6548   88.8397   11.6063 C.ar    1  UNL1       -0.0004
      2 C          62.8741   90.0106   10.6949 C.ar    1  UNL1       -0.0011
      3 C          63.7946   91.1206   11.1080 C.ar    1  UNL1        0.0144
      4 C          64.4956   91.0597   12.4327 C.ar    1  UNL1        0.0497
      5 C          64.2762   89.8887   13.3442 C.ar    1  UNL1        0.0144
      6 C          63.3558   88.7787   12.9310 C.ar    1  UNL1       -0.0011
      7 N          65.4160   92.1697   12.8459 N.pl3   1  UNL1       -0.2927
      8 H          65.6756   92.2680   13.7905 H       1  UNL1        0.1541
      9 C          65.9409   93.1298   11.8200 C.ar    1  UNL1        0.1635
     10 N          66.4777   92.7680   10.4669 N.ar    1  UNL1       -0.2240
     11 C          66.8898   94.0350    9.7777 C.ar    1  UNL1        0.0892
     12 C          67.4854   94.2941    8.4256 C.ar    1  UNL1        0.0197
     13 C          67.7989   95.6980    8.0008 C.ar    1  UNL1        0.0016
     14 C          67.5169   96.8429    8.9280 C.ar    1  UNL1        0.0006
     15 C          66.9213   96.5838   10.2801 C.ar    1  UNL1        0.0081
     16 C          66.6077   95.1799   10.7049 C.ar    1  UNL1        0.0497
     17 S          66.0213   94.6204   11.9671 S.2     1  UNL1       -0.0515
     18 C          61.7344   87.7296   11.1931 C.3     1  UNL1        0.1240
     19 N          62.2234   86.3116   11.1907 N.ar    1  UNL1       -0.3045
     20 C          62.4221   85.4454   12.3992 C.ar    1  UNL1        0.0983
     21 C          62.9211   84.1092   11.9347 C.ar    1  UNL1        0.1193
     22 N          63.0308   84.1496   10.4393 N.ar    1  UNL1       -0.2223
     23 C          62.5995   85.5107    9.9795 C.ar    1  UNL1        0.1788
     24 C          59.7195   87.3417    9.5996 C.3     1  UNL1        0.0197
     25 C          60.3250   88.0376   10.7824 C.3     1  UNL1        0.0827
     26 N          59.5211   89.0415   11.5545 N.3     1  UNL1       -0.2696
     27 C          58.7491   88.6117   12.7665 C.3     1  UNL1        0.0897
     28 C          59.4894   90.4751   11.1145 C.3     1  UNL1        0.0897
@<TRIPOS>BOND
     1    25    24    1
     2    25    18    1
     3    18     1    1
     4     1     2   ar
     5     2     3   ar
     6     3     4   ar
     7     4     7    1
     8     7     9    1
     9     9    10   ar
    10    10    11   ar
    11    11    12   ar
    12    12    13   ar
    13    13    14   ar
    14    14    15   ar
    15    15    16   ar
    16    16    17   ar
    17     4     5   ar
    18     5     6   ar
    19    18    19    1
    20    19    20   ar
    21    20    21   ar
    22    21    22   ar
    23    22    23   ar
    24    25    26    1
    25    26    27    1
    26    26    28    1
    27     6     1   ar
    28    23    19   ar
    29    17     9   ar
    30    16    11   ar
    31     7     8    1
@<TRIPOS>MOLECULE
*****
 28 31 0 0 0
SMALL
GASTEIGER

@<TRIPOS>ATOM
      1 C          64.2895   89.6612   14.9025 C.ar    1  UNL1       -0.0004
      2 C          64.7181   88.4386   14.1465 C.ar    1  UNL1       -0.0011
      3 C          64.2804   87.0799   14.6075 C.ar    1  UNL1        0.0144
      4 C          63.4142   86.9439   15.8246 C.ar    1  UNL1        0.0497
      5 C          62.9856   88.1666   16.5806 C.ar    1  UNL1        0.0144
      6 C          63.4233   89.5252   16.1195 C.ar    1  UNL1       -0.0011
      7 N          62.9765   85.5853   16.2856 N.pl3   1  UNL1       -0.2927
      8 H          62.7368   85.4393   17.2293 H       1  UNL1        0.1541
      9 C          62.9040   84.4492   15.3090 C.ar    1  UNL1        0.1635
     10 N          62.7711   82.9958   15.6554 N.ar    1  UNL1       -0.2240
     11 C          62.7367   82.2153   14.3749 C.ar    1  UNL1        0.0892
     12 C          62.6181   80.7459   14.0981 C.ar    1  UNL1        0.0197
     13 C          62.6112   80.2474   12.6834 C.ar    1  UNL1        0.0016
     14 C          62.7228   81.2184   11.5455 C.ar    1  UNL1        0.0006
     15 C          62.8415   82.6878   11.8224 C.ar    1  UNL1        0.0081
     16 C          62.8484   83.1863   13.2371 C.ar    1  UNL1        0.0497
     17 S          62.9518   84.5669   13.8144 S.2     1  UNL1       -0.0515
     18 C          64.7272   91.0199   14.4414 C.3     1  UNL1        0.1240
     19 N          64.5486   91.4185   13.0064 N.ar    1  UNL1       -0.3045
     20 C          63.4084   91.0211   12.1163 C.ar    1  UNL1        0.0983
     21 C          63.6339   91.6415   10.7694 C.ar    1  UNL1        0.1193
     22 N          64.9134   92.4223   10.8270 N.ar    1  UNL1       -0.2223
     23 C          65.4787   92.2845   12.2096 C.ar    1  UNL1        0.1788
     24 C          64.5983   92.3701   16.6573 C.3     1  UNL1        0.0197
     25 C          65.3434   91.9799   15.4154 C.3     1  UNL1        0.0827
     26 N          66.7049   92.5497   15.1474 N.3     1  UNL1       -0.2696
     27 C          66.8403   93.8943   14.4964 C.3     1  UNL1        0.0897
     28 C          67.9308   91.7750   15.5303 C.3     1  UNL1        0.0897
@<TRIPOS>BOND
     1    25    24    1
     2    25    18    1
     3    18     1    1
     4     1     2   ar
     5     2     3   ar
     6     3     4   ar
     7     4     7    1
     8     7     9    1
     9     9    10   ar
    10    10    11   ar
    11    11    12   ar
    12    12    13   ar
    13    13    14   ar
    14    14    15   ar
    15    15    16   ar
    16    16    17   ar
    17     4     5   ar
    18     5     6   ar
    19    18    19    1
    20    19    20   ar
    21    20    21   ar
    22    21    22   ar
    23    22    23   ar
    24    25    26    1
    25    26    27    1
    26    26    28    1
    27     6     1   ar
    28    23    19   ar
    29    17     9   ar
    30    16    11   ar
    31     7     8    1
@<TRIPOS>MOLECULE
*****
 28 31 0 0 0
SMALL
GASTEIGER

@<TRIPOS>ATOM
      1 C          64.8205   90.2896   14.4875 C.ar    1  UNL1       -0.0004
      2 C          64.9901   88.9161   13.9090 C.ar    1  UNL1       -0.0011
      3 C          64.3332   87.7388   14.5669 C.ar    1  UNL1        0.0144
      4 C          63.5069   87.9351   15.8032 C.ar    1  UNL1        0.0497
      5 C          63.3373   89.3087   16.3817 C.ar    1  UNL1        0.0144
      6 C          63.9941   90.4859   15.7239 C.ar    1  UNL1       -0.0011
      7 N          62.8500   86.7580   16.4611 N.pl3   1  UNL1       -0.2927
      8 H          62.3939   86.8688   17.3264 H       1  UNL1        0.1541
      9 C          62.8882   85.4118   15.8005 C.ar    1  UNL1        0.1635
     10 N          61.7080   84.5230   15.5413 N.ar    1  UNL1       -0.2240
     11 C          62.2037   83.2800   14.8637 C.ar    1  UNL1        0.0892
     12 C          61.4935   82.0539   14.3714 C.ar    1  UNL1        0.0197
     13 C          62.2699   80.9484   13.7195 C.ar    1  UNL1        0.0016
     14 C          63.7565   81.0690   13.5599 C.ar    1  UNL1        0.0006
     15 C          64.4667   82.2950   14.0521 C.ar    1  UNL1        0.0081
     16 C          63.6903   83.4005   14.7040 C.ar    1  UNL1        0.0497
     17 S          64.1134   84.7180   15.2830 S.2     1  UNL1       -0.0515
     18 C          65.4773   91.4669   13.8297 C.3     1  UNL1        0.1240
     19 N          66.6715   92.1127   14.4676 N.ar    1  UNL1       -0.3045
     20 C          66.6509   93.0151   15.6657 C.ar    1  UNL1        0.0983
     21 C          68.0627   93.4296   15.9579 C.ar    1  UNL1        0.1193
     22 N          68.9556   92.7834   14.9406 N.ar    1  UNL1       -0.2223
     23 C          68.0958   91.9695   14.0195 C.ar    1  UNL1        0.1788
     24 C          63.5829   91.5753   12.0552 C.3     1  UNL1        0.0197
     25 C          64.9400   91.9983   12.5340 C.3     1  UNL1        0.0827
     26 N          65.7597   92.9526   11.7172 N.3     1  UNL1       -0.2696
     27 C          65.9675   94.3600   12.1927 C.3     1  UNL1        0.0897
     28 C          66.3717   92.4996   10.4249 C.3     1  UNL1        0.0897
@<TRIPOS>BOND
     1    25    24    1
     2    25    18    1
     3    18     1    1
     4     1     2   ar
     5     2     3   ar
     6     3     4   ar
     7     4     7    1
     8     7     9    1
     9     9    10   ar
    10    10    11   ar
    11    11    12   ar
    12    12    13   ar
    13    13    14   ar
    14    14    15   ar
    15    15    16   ar
    16    16    17   ar
    17     4     5   ar
    18     5     6   ar
    19    18    19    1
    20    19    20   ar
    21    20    21   ar
    22    21    22   ar
    23    22    23   ar
    24    25    26    1
    25    26    27    1
    26    26    28    1
    27     6     1   ar
    28    23    19   ar
    29    17     9   ar
    30    16    11   ar
    31     7     8    1
@<TRIPOS>MOLECULE
*****
 28 31 0 0 0
SMALL
GASTEIGER

@<TRIPOS>ATOM
      1 C          62.5439   88.4719   10.8830 C.ar    1  UNL1       -0.0004
      2 C          63.1027   88.3458   12.2693 C.ar    1  UNL1       -0.0011
      3 C          63.8168   89.5053   12.8984 C.ar    1  UNL1        0.0144
      4 C          63.9720   90.7908   12.1412 C.ar    1  UNL1        0.0497
      5 C          63.4132   90.9168   10.7548 C.ar    1  UNL1        0.0144
      6 C          62.6992   89.7574   10.1258 C.ar    1  UNL1       -0.0011
      7 N          64.6860   91.9503   12.7702 N.pl3   1  UNL1       -0.2927
      8 H          64.7134   92.0385   13.7504 H       1  UNL1        0.1541
      9 C          65.3584   92.9754   11.9060 C.ar    1  UNL1        0.1635
     10 N          65.5238   94.4305   12.2303 N.ar    1  UNL1       -0.2240
     11 C          66.2511   95.0799   11.0904 C.ar    1  UNL1        0.0892
     12 C          66.6913   96.4946   10.8564 C.ar    1  UNL1        0.0197
     13 C          67.4157   96.8554    9.5934 C.ar    1  UNL1        0.0016
     14 C          67.6998   95.8015    8.5645 C.ar    1  UNL1        0.0006
     15 C          67.2596   94.3869    8.7985 C.ar    1  UNL1        0.0081
     16 C          66.5352   94.0260   10.0615 C.ar    1  UNL1        0.0497
     17 S          65.9835   92.7254   10.5655 S.2     1  UNL1       -0.0515
     18 C          61.8299   87.3124   10.2538 C.3     1  UNL1        0.1240
     19 N          60.7165   87.5568    9.2788 N.ar    1  UNL1       -0.3045
     20 C          60.3222   88.8859    8.7059 C.ar    1  UNL1        0.0983
     21 C          59.1640   88.6656    7.7784 C.ar    1  UNL1        0.1193
     22 N          58.8426   87.2004    7.7781 N.ar    1  UNL1       -0.2223
     23 C          59.8021   86.5152    8.7054 C.ar    1  UNL1        0.1788
     24 C          61.8495   85.3268   11.9292 C.3     1  UNL1        0.0197
     25 C          62.2291   85.9085   10.5998 C.3     1  UNL1        0.0827
     26 N          63.0080   85.0863    9.6163 N.3     1  UNL1       -0.2696
     27 C          63.1136   85.5281    8.1867 C.3     1  UNL1        0.0897
     28 C          63.6814   83.8224   10.0623 C.3     1  UNL1        0.0897
@<TRIPOS>BOND
     1    25    24    1
     2    25    18    1
     3    18     1    1
     4     1     2   ar
     5     2     3   ar
     6     3     4   ar
     7     4     7    1
     8     7     9    1
     9     9    10   ar
    10    10    11   ar
    11    11    12   ar
    12    12    13   ar
    13    13    14   ar
    14    14    15   ar
    15    15    16   ar
    16    16    17   ar
    17     4     5   ar
    18     5     6   ar
    19    18    19    1
    20    19    20   ar
    21    20    21   ar
    22    21    22   ar
    23    22    23   ar
    24    25    26    1
    25    26    27    1
    26    26    28    1
    27     6     1   ar
    28    23    19   ar
    29    17     9   ar
    30    16    11   ar
    31     7     8    1
