@<TRIPOS>MOLECULE
*****
 34 38 0 0 0
SMALL
GASTEIGER

@<TRIPOS>ATOM
      1 N          60.7448   87.2242    9.7078 N.3     1  UNL1       -0.2712
      2 C          61.4124   86.5167    8.5660 C.3     1  UNL1        0.0738
      3 C          62.3567   85.5015    9.1383 C.3     1  UNL1        0.0372
      4 C          63.3530   84.4368    8.7863 C.3     1  UNL1        0.0245
      5 C          63.8847   83.8587   10.0643 C.3     1  UNL1        0.0909
      6 N          63.2170   84.5662   11.2061 N.pl3   1  UNL1       -0.3077
      7 C          62.2727   85.5815   10.6338 C.3     1  UNL1        0.0901
      8 C          61.2765   86.6462   10.9858 C.3     1  UNL1        0.0921
      9 C          63.4524   84.3044   12.6642 C.ar    1  UNL1        0.0517
     10 C          63.7169   85.4477   13.5984 C.ar    1  UNL1        0.0145
     11 C          63.9523   85.1859   15.0565 C.ar    1  UNL1        0.0013
     12 C          63.9231   83.7807   15.5804 C.ar    1  UNL1        0.0000
     13 C          63.6586   82.6373   14.6462 C.ar    1  UNL1        0.0051
     14 C          63.4232   82.8991   13.1881 C.ar    1  UNL1        0.0847
     15 C          63.1586   81.7558   12.2540 C.3     1  UNL1        0.4197
     16 F          62.8941   80.6124   11.3198 F       1  UNL1       -0.1658
     17 F          64.6342   81.5186   12.1264 F       1  UNL1       -0.1658
     18 F          61.6830   81.9929   12.3815 F       1  UNL1       -0.1658
     19 C          59.7245   88.3177    9.5921 C.3     1  UNL1        0.0731
     20 C          60.1360   89.7492    9.7696 C.3     1  UNL1        0.0294
     21 C          60.9326   90.1569   10.9734 C.3     1  UNL1        0.0666
     22 S          62.3870   90.4951   10.8309 S.3     1  UNL1       -0.0756
     23 C          64.9377   92.4726   11.3138 C.3     1  UNL1        0.1340
     24 N          64.4481   91.4178   12.2613 N.ar    1  UNL1       -0.2884
     25 C          63.2757   90.5088   12.0393 C.ar    1  UNL1        0.1932
     26 N          63.1479   89.6159   13.2378 N.ar    1  UNL1       -0.1221
     27 N          64.2413   89.9731   14.2005 N.ar    1  UNL1       -0.1282
     28 C          65.0449   91.0867   13.5971 C.ar    1  UNL1        0.1683
     29 C          66.2361   91.7523   14.2199 C.ar    1  UNL1        0.0551
     30 C          66.1307   92.3458   15.5934 C.ar    1  UNL1        0.0062
     31 C          67.3219   93.0114   16.2163 C.ar    1  UNL1        0.0208
     32 C          68.6186   93.0834   15.4656 C.ar    1  UNL1        0.0989
     33 N          68.7240   92.4898   14.0921 N.ar    1  UNL1       -0.2422
     34 C          67.5327   91.8242   13.4692 C.ar    1  UNL1        0.1019
@<TRIPOS>BOND
     1    23    24    1
     2    24    25   ar
     3    25    22    1
     4    22    21    1
     5    21    20    1
     6    20    19    1
     7    19     1    1
     8     1     2    1
     9     2     3    1
    10     3     4    1
    11     4     5    1
    12     5     6    1
    13     6     9    1
    14     9    10   ar
    15    10    11   ar
    16    11    12   ar
    17    12    13   ar
    18    13    14   ar
    19    14    15    1
    20    15    16    1
    21    15    17    1
    22    15    18    1
    23     6     7    1
    24     7     8    1
    25    25    26   ar
    26    26    27   ar
    27    27    28   ar
    28    28    29    1
    29    29    30   ar
    30    30    31   ar
    31    31    32   ar
    32    32    33   ar
    33    33    34   ar
    34    28    24   ar
    35    34    29   ar
    36     8     1    1
    37     7     3    1
    38    14     9   ar
@<TRIPOS>MOLECULE
*****
 34 38 0 0 0
SMALL
GASTEIGER

@<TRIPOS>ATOM
      1 N          60.9738   87.1880   10.6504 N.3     1  UNL1       -0.2712
      2 C          61.7727   87.0869    9.3848 C.3     1  UNL1        0.0738
      3 C          62.5498   85.8046    9.4286 C.3     1  UNL1        0.0372
      4 C          63.5238   84.9496    8.6734 C.3     1  UNL1        0.0245
      5 C          63.8073   83.7298    9.4993 C.3     1  UNL1        0.0909
      6 N          63.0083   83.8311   10.7649 N.pl3   1  UNL1       -0.3077
      7 C          62.2312   85.1133   10.7211 C.3     1  UNL1        0.0901
      8 C          61.2572   85.9684   11.4762 C.3     1  UNL1        0.0921
      9 C          62.9899   82.8264   11.8786 C.ar    1  UNL1        0.0517
     10 C          62.6210   81.4003   11.5961 C.ar    1  UNL1        0.0145
     11 C          62.6025   80.3956   12.7098 C.ar    1  UNL1        0.0013
     12 C          62.9529   80.8172   14.1060 C.ar    1  UNL1        0.0000
     13 C          63.3218   82.2434   14.3886 C.ar    1  UNL1        0.0051
     14 C          63.3403   83.2481   13.2749 C.ar    1  UNL1        0.0847
     15 C          63.7092   84.6743   13.5574 C.3     1  UNL1        0.4197
     16 F          64.0781   86.1005   13.8399 F       1  UNL1       -0.1658
     17 F          65.0658   84.4414   12.9614 F       1  UNL1       -0.1658
     18 F          62.3524   84.9072   14.1533 F       1  UNL1       -0.1658
     19 C          60.0532   88.3117   11.0244 C.3     1  UNL1        0.0731
     20 C          60.1562   89.6319   10.3198 C.3     1  UNL1        0.0294
     21 C          61.0327   90.7136   10.8780 C.3     1  UNL1        0.0666
     22 S          62.5226   90.6227   10.7302 S.3     1  UNL1       -0.0756
     23 C          65.0454   92.6018   11.3369 C.3     1  UNL1        0.1340
     24 N          64.5561   91.4987   12.2278 N.ar    1  UNL1       -0.2884
     25 C          63.3965   90.5890   11.9489 C.ar    1  UNL1        0.1932
     26 N          63.2641   89.6396   13.1027 N.ar    1  UNL1       -0.1221
     27 N          64.3419   89.9626   14.0947 N.ar    1  UNL1       -0.1282
     28 C          65.1404   91.1116   13.5540 C.ar    1  UNL1        0.1683
     29 C          66.3167   91.7596   14.2222 C.ar    1  UNL1        0.0551
     30 C          66.1729   92.3369   15.5991 C.ar    1  UNL1        0.0062
     31 C          67.3492   92.9850   16.2673 C.ar    1  UNL1        0.0208
     32 C          68.6693   93.0556   15.5584 C.ar    1  UNL1        0.0989
     33 N          68.8131   92.4783   14.1814 N.ar    1  UNL1       -0.2422
     34 C          67.6367   91.8303   13.5133 C.ar    1  UNL1        0.1019
@<TRIPOS>BOND
     1    23    24    1
     2    24    25   ar
     3    25    22    1
     4    22    21    1
     5    21    20    1
     6    20    19    1
     7    19     1    1
     8     1     2    1
     9     2     3    1
    10     3     4    1
    11     4     5    1
    12     5     6    1
    13     6     9    1
    14     9    10   ar
    15    10    11   ar
    16    11    12   ar
    17    12    13   ar
    18    13    14   ar
    19    14    15    1
    20    15    16    1
    21    15    17    1
    22    15    18    1
    23     6     7    1
    24     7     8    1
    25    25    26   ar
    26    26    27   ar
    27    27    28   ar
    28    28    29    1
    29    29    30   ar
    30    30    31   ar
    31    31    32   ar
    32    32    33   ar
    33    33    34   ar
    34    28    24   ar
    35    34    29   ar
    36     8     1    1
    37     7     3    1
    38    14     9   ar
@<TRIPOS>MOLECULE
*****
 34 38 0 0 0
SMALL
GASTEIGER

@<TRIPOS>ATOM
      1 N          64.0340   86.0206   15.2861 N.3     1  UNL1       -0.2712
      2 C          63.5236   86.6242   16.5609 C.3     1  UNL1        0.0738
      3 C          63.4626   88.1117   16.3776 C.3     1  UNL1        0.0372
      4 C          63.1094   89.4040   17.0523 C.3     1  UNL1        0.0245
      5 C          63.3638   90.5186   16.0811 C.3     1  UNL1        0.0909
      6 N          63.8742   89.9150   14.8062 N.pl3   1  UNL1       -0.3077
      7 C          63.9352   88.4275   14.9895 C.3     1  UNL1        0.0901
      8 C          64.2884   87.1351   14.3149 C.3     1  UNL1        0.0921
      9 C          64.2564   90.6669   13.5658 C.ar    1  UNL1        0.0517
     10 C          63.4615   90.4893   12.3062 C.ar    1  UNL1        0.0145
     11 C          63.8437   91.2412   11.0659 C.ar    1  UNL1        0.0013
     12 C          65.0208   92.1708   11.0851 C.ar    1  UNL1        0.0000
     13 C          65.8157   92.3485   12.3447 C.ar    1  UNL1        0.0051
     14 C          65.4335   91.5965   13.5851 C.ar    1  UNL1        0.0847
     15 C          66.2283   91.7741   14.8447 C.3     1  UNL1        0.4197
     16 F          67.0232   91.9518   16.1043 F       1  UNL1       -0.1658
     17 F          65.4358   93.0051   15.1712 F       1  UNL1       -0.1658
     18 F          67.0209   90.5431   14.5182 F       1  UNL1       -0.1658
     19 C          64.2518   84.5592   15.0277 C.3     1  UNL1        0.0731
     20 C          64.9628   84.1153   13.7838 C.3     1  UNL1        0.0294
     21 C          64.2733   83.2069   12.8094 C.3     1  UNL1        0.0666
     22 S          63.9273   83.7034   11.4369 S.3     1  UNL1       -0.0756
     23 C          62.9740   85.0166    8.6056 C.3     1  UNL1        0.1340
     24 N          62.4358   85.3609    9.9627 N.ar    1  UNL1       -0.2884
     25 C          62.8740   84.7573   11.2641 C.ar    1  UNL1        0.1932
     26 N          62.0739   85.3926   12.3625 N.ar    1  UNL1       -0.1221
     27 N          61.1412   86.3888   11.7399 N.ar    1  UNL1       -0.1282
     28 C          61.3649   86.3693   10.2567 C.ar    1  UNL1        0.1683
     29 C          60.6442   87.2104    9.2452 C.ar    1  UNL1        0.0551
     30 C          60.8399   88.6975    9.2301 C.ar    1  UNL1        0.0062
     31 C          60.1192   89.5387    8.2186 C.ar    1  UNL1        0.0208
     32 C          59.2028   88.8926    7.2222 C.ar    1  UNL1        0.0989
     33 N          59.0070   87.4055    7.2373 N.ar    1  UNL1       -0.2422
     34 C          59.7277   86.5644    8.2489 C.ar    1  UNL1        0.1019
@<TRIPOS>BOND
     1    23    24    1
     2    24    25   ar
     3    25    22    1
     4    22    21    1
     5    21    20    1
     6    20    19    1
     7    19     1    1
     8     1     2    1
     9     2     3    1
    10     3     4    1
    11     4     5    1
    12     5     6    1
    13     6     9    1
    14     9    10   ar
    15    10    11   ar
    16    11    12   ar
    17    12    13   ar
    18    13    14   ar
    19    14    15    1
    20    15    16    1
    21    15    17    1
    22    15    18    1
    23     6     7    1
    24     7     8    1
    25    25    26   ar
    26    26    27   ar
    27    27    28   ar
    28    28    29    1
    29    29    30   ar
    30    30    31   ar
    31    31    32   ar
    32    32    33   ar
    33    33    34   ar
    34    28    24   ar
    35    34    29   ar
    36     8     1    1
    37     7     3    1
    38    14     9   ar
@<TRIPOS>MOLECULE
*****
 34 38 0 0 0
SMALL
GASTEIGER

@<TRIPOS>ATOM
      1 N          62.2621   87.1196   11.3532 N.3     1  UNL1       -0.2712
      2 C          63.1865   87.6206   12.4230 C.3     1  UNL1        0.0738
      3 C          63.5644   86.4571   13.2911 C.3     1  UNL1        0.0372
      4 C          64.3693   86.0477   14.4889 C.3     1  UNL1        0.0245
      5 C          64.1758   84.5747   14.6960 C.3     1  UNL1        0.0909
      6 N          63.2512   84.0738   13.6261 N.pl3   1  UNL1       -0.3077
      7 C          62.8734   85.2372   12.7580 C.3     1  UNL1        0.0901
      8 C          62.0685   85.6466   11.5603 C.3     1  UNL1        0.0921
      9 C          62.7862   82.6580   13.4547 C.ar    1  UNL1        0.0517
     10 C          61.8534   82.0482   14.4586 C.ar    1  UNL1        0.0145
     11 C          61.3884   80.6324   14.2871 C.ar    1  UNL1        0.0013
     12 C          61.8562   79.8265   13.1117 C.ar    1  UNL1        0.0000
     13 C          62.7890   80.4363   12.1077 C.ar    1  UNL1        0.0051
     14 C          63.2541   81.8521   12.2792 C.ar    1  UNL1        0.0847
     15 C          64.1868   82.4620   11.2752 C.3     1  UNL1        0.4197
     16 F          65.1196   83.0718   10.2713 F       1  UNL1       -0.1658
     17 F          63.0276   82.7327   10.3627 F       1  UNL1       -0.1658
     18 F          65.3462   82.1912   12.1878 F       1  UNL1       -0.1658
     19 C          61.6403   87.9465   10.2671 C.3     1  UNL1        0.0731
     20 C          60.5736   88.9461   10.6030 C.3     1  UNL1        0.0294
     21 C          60.9442   90.3716   10.8872 C.3     1  UNL1        0.0666
     22 S          62.3781   90.8042   10.8058 S.3     1  UNL1       -0.0756
     23 C          65.2713   92.2895   11.0765 C.3     1  UNL1        0.1340
     24 N          64.5316   91.5921   12.1795 N.ar    1  UNL1       -0.2884
     25 C          63.2018   90.9094   12.0551 C.ar    1  UNL1        0.1932
     26 N          62.8401   90.3504   13.3992 N.ar    1  UNL1       -0.1221
     27 N          63.9464   90.6876   14.3544 N.ar    1  UNL1       -0.1282
     28 C          64.9919   91.4550   13.6006 C.ar    1  UNL1        0.1683
     29 C          66.2727   91.9912   14.1682 C.ar    1  UNL1        0.0551
     30 C          66.2753   92.6637   15.5089 C.ar    1  UNL1        0.0062
     31 C          67.5561   93.1999   16.0765 C.ar    1  UNL1        0.0208
     32 C          68.8342   93.0634   15.3033 C.ar    1  UNL1        0.0989
     33 N          68.8316   92.3909   13.9625 N.ar    1  UNL1       -0.2422
     34 C          67.5507   91.8547   13.3950 C.ar    1  UNL1        0.1019
@<TRIPOS>BOND
     1    23    24    1
     2    24    25   ar
     3    25    22    1
     4    22    21    1
     5    21    20    1
     6    20    19    1
     7    19     1    1
     8     1     2    1
     9     2     3    1
    10     3     4    1
    11     4     5    1
    12     5     6    1
    13     6     9    1
    14     9    10   ar
    15    10    11   ar
    16    11    12   ar
    17    12    13   ar
    18    13    14   ar
    19    14    15    1
    20    15    16    1
    21    15    17    1
    22    15    18    1
    23     6     7    1
    24     7     8    1
    25    25    26   ar
    26    26    27   ar
    27    27    28   ar
    28    28    29    1
    29    29    30   ar
    30    30    31   ar
    31    31    32   ar
    32    32    33   ar
    33    33    34   ar
    34    28    24   ar
    35    34    29   ar
    36     8     1    1
    37     7     3    1
    38    14     9   ar
@<TRIPOS>MOLECULE
*****
 34 38 0 0 0
SMALL
GASTEIGER

@<TRIPOS>ATOM
      1 N          63.3539   84.0478   14.1856 N.3     1  UNL1       -0.2712
      2 C          64.1761   83.1185   13.3428 C.3     1  UNL1        0.0738
      3 C          63.9045   83.4366   11.9023 C.3     1  UNL1        0.0372
      4 C          64.2447   83.0588   10.4911 C.3     1  UNL1        0.0245
      5 C          63.4651   83.9512    9.5714 C.3     1  UNL1        0.0909
      6 N          62.6429   84.8805   10.4143 N.pl3   1  UNL1       -0.3077
      7 C          62.9145   84.5625   11.8548 C.3     1  UNL1        0.0901
      8 C          62.5742   84.9403   13.2660 C.3     1  UNL1        0.0921
      9 C          61.7125   85.9416    9.9059 C.ar    1  UNL1        0.0517
     10 C          60.9830   86.8258   10.8734 C.ar    1  UNL1        0.0145
     11 C          60.0527   87.8869   10.3650 C.ar    1  UNL1        0.0013
     12 C          59.8517   88.0638    8.8891 C.ar    1  UNL1        0.0000
     13 C          60.5812   87.1796    7.9216 C.ar    1  UNL1        0.0051
     14 C          61.5116   86.1185    8.4300 C.ar    1  UNL1        0.0847
     15 C          62.2410   85.2343    7.4625 C.3     1  UNL1        0.4197
     16 F          62.9705   84.3502    6.4950 F       1  UNL1       -0.1658
     17 F          60.9418   84.6006    7.0621 F       1  UNL1       -0.1658
     18 F          63.5403   85.8681    7.8629 F       1  UNL1       -0.1658
     19 C          63.3178   84.0793   15.6849 C.3     1  UNL1        0.0731
     20 C          62.7557   85.2740   16.3967 C.3     1  UNL1        0.0294
     21 C          63.5549   86.5404   16.4830 C.3     1  UNL1        0.0666
     22 S          62.8886   87.8216   16.8883 S.3     1  UNL1       -0.0756
     23 C          64.2567   88.2028   13.9502 C.3     1  UNL1        0.1340
     24 N          63.9601   89.2963   14.9332 N.ar    1  UNL1       -0.2884
     25 C          63.3313   89.1211   16.2837 C.ar    1  UNL1        0.1932
     26 N          63.2228   90.4734   16.9235 N.ar    1  UNL1       -0.1221
     27 N          63.7846   91.4845   15.9685 N.ar    1  UNL1       -0.1282
     28 C          64.2403   90.7570   14.7383 C.ar    1  UNL1        0.1683
     29 C          64.8663   91.3806   13.5262 C.ar    1  UNL1        0.0551
     30 C          64.1114   91.4245   12.2308 C.ar    1  UNL1        0.0062
     31 C          64.7374   92.0482   11.0187 C.ar    1  UNL1        0.0208
     32 C          66.1184   92.6280   11.1021 C.ar    1  UNL1        0.0989
     33 N          66.8733   92.5841   12.3976 N.ar    1  UNL1       -0.2422
     34 C          66.2472   91.9604   13.6097 C.ar    1  UNL1        0.1019
@<TRIPOS>BOND
     1    23    24    1
     2    24    25   ar
     3    25    22    1
     4    22    21    1
     5    21    20    1
     6    20    19    1
     7    19     1    1
     8     1     2    1
     9     2     3    1
    10     3     4    1
    11     4     5    1
    12     5     6    1
    13     6     9    1
    14     9    10   ar
    15    10    11   ar
    16    11    12   ar
    17    12    13   ar
    18    13    14   ar
    19    14    15    1
    20    15    16    1
    21    15    17    1
    22    15    18    1
    23     6     7    1
    24     7     8    1
    25    25    26   ar
    26    26    27   ar
    27    27    28   ar
    28    28    29    1
    29    29    30   ar
    30    30    31   ar
    31    31    32   ar
    32    32    33   ar
    33    33    34   ar
    34    28    24   ar
    35    34    29   ar
    36     8     1    1
    37     7     3    1
    38    14     9   ar
@<TRIPOS>MOLECULE
*****
 34 38 0 0 0
SMALL
GASTEIGER

@<TRIPOS>ATOM
      1 N          63.3352   83.4618   11.7796 N.3     1  UNL1       -0.2712
      2 C          63.5677   83.1645   10.3279 C.3     1  UNL1        0.0738
      3 C          63.1715   84.3761    9.5374 C.3     1  UNL1        0.0372
      4 C          63.0703   84.9412    8.1516 C.3     1  UNL1        0.0245
      5 C          62.5304   86.3366    8.2582 C.3     1  UNL1        0.0909
      6 N          62.2979   86.6339    9.7100 N.pl3   1  UNL1       -0.3077
      7 C          62.6941   85.4223   10.5005 C.3     1  UNL1        0.0901
      8 C          62.7953   84.8572   11.8863 C.3     1  UNL1        0.0921
      9 C          61.7630   87.9175   10.2724 C.ar    1  UNL1        0.0517
     10 C          62.4703   88.5894   11.4119 C.ar    1  UNL1        0.0145
     11 C          61.9354   89.8730   11.9743 C.ar    1  UNL1        0.0013
     12 C          60.6934   90.4847   11.3973 C.ar    1  UNL1        0.0000
     13 C          59.9861   89.8129   10.2578 C.ar    1  UNL1        0.0051
     14 C          60.5209   88.5293    9.6953 C.ar    1  UNL1        0.0847
     15 C          59.8137   87.8574    8.5559 C.3     1  UNL1        0.4197
     16 F          59.1065   87.1856    7.4164 F       1  UNL1       -0.1658
     17 F          59.4741   86.7009    9.4486 F       1  UNL1       -0.1658
     18 F          60.1533   89.0140    7.6631 F       1  UNL1       -0.1658
     19 C          63.5967   82.5278   12.9238 C.3     1  UNL1        0.0731
     20 C          62.4693   82.1016   13.8168 C.3     1  UNL1        0.0294
     21 C          62.0741   82.9552   14.9853 C.3     1  UNL1        0.0666
     22 S          63.1243   83.6800   15.7737 S.3     1  UNL1       -0.0756
     23 C          64.8040   86.1698   14.4973 C.3     1  UNL1        0.1340
     24 N          63.7143   86.2750   15.5228 N.ar    1  UNL1       -0.2884
     25 C          62.9422   85.1306   16.1095 C.ar    1  UNL1        0.1932
     26 N          61.9561   85.6914   17.0908 N.ar    1  UNL1       -0.1221
     27 N          62.1187   87.1824   17.1107 N.ar    1  UNL1       -0.1282
     28 C          63.2053   87.5432   16.1415 C.ar    1  UNL1        0.1683
     29 C          63.6967   88.9288   15.8435 C.ar    1  UNL1        0.0551
     30 C          64.6115   89.1658   14.6787 C.ar    1  UNL1        0.0062
     31 C          65.1028   90.5513   14.3807 C.ar    1  UNL1        0.0208
     32 C          64.6793   91.6999   15.2477 C.ar    1  UNL1        0.0989
     33 N          63.7645   91.4629   16.4125 N.ar    1  UNL1       -0.2422
     34 C          63.2732   90.0772   16.7105 C.ar    1  UNL1        0.1019
@<TRIPOS>BOND
     1    23    24    1
     2    24    25   ar
     3    25    22    1
     4    22    21    1
     5    21    20    1
     6    20    19    1
     7    19     1    1
     8     1     2    1
     9     2     3    1
    10     3     4    1
    11     4     5    1
    12     5     6    1
    13     6     9    1
    14     9    10   ar
    15    10    11   ar
    16    11    12   ar
    17    12    13   ar
    18    13    14   ar
    19    14    15    1
    20    15    16    1
    21    15    17    1
    22    15    18    1
    23     6     7    1
    24     7     8    1
    25    25    26   ar
    26    26    27   ar
    27    27    28   ar
    28    28    29    1
    29    29    30   ar
    30    30    31   ar
    31    31    32   ar
    32    32    33   ar
    33    33    34   ar
    34    28    24   ar
    35    34    29   ar
    36     8     1    1
    37     7     3    1
    38    14     9   ar
@<TRIPOS>MOLECULE
*****
 34 38 0 0 0
SMALL
GASTEIGER

@<TRIPOS>ATOM
      1 N          61.0226   87.0301   10.4776 N.3     1  UNL1       -0.2712
      2 C          61.8618   86.9094    9.2402 C.3     1  UNL1        0.0738
      3 C          62.6500   85.6369    9.3370 C.3     1  UNL1        0.0372
      4 C          63.6558   84.7758    8.6321 C.3     1  UNL1        0.0245
      5 C          63.9254   83.5778    9.4936 C.3     1  UNL1        0.0909
      6 N          63.0862   83.6986   10.7311 N.pl3   1  UNL1       -0.3077
      7 C          62.2980   84.9711   10.6342 C.3     1  UNL1        0.0901
      8 C          61.2922   85.8322   11.3392 C.3     1  UNL1        0.0921
      9 C          63.0428   82.7188   11.8660 C.ar    1  UNL1        0.0517
     10 C          62.7226   81.2776   11.6008 C.ar    1  UNL1        0.0145
     11 C          62.6792   80.2978   12.7358 C.ar    1  UNL1        0.0013
     12 C          62.9561   80.7592   14.1359 C.ar    1  UNL1        0.0000
     13 C          63.2763   82.2004   14.4012 C.ar    1  UNL1        0.0051
     14 C          63.3197   83.1802   13.2662 C.ar    1  UNL1        0.0847
     15 C          63.6399   84.6214   13.5314 C.3     1  UNL1        0.4197
     16 F          63.9602   86.0626   13.7966 F       1  UNL1       -0.1658
     17 F          65.0809   84.3611   13.2060 F       1  UNL1       -0.1658
     18 F          62.1989   84.8818   13.8568 F       1  UNL1       -0.1658
     19 C          60.0795   88.1518   10.7973 C.3     1  UNL1        0.0731
     20 C          60.4643   89.5675   10.4848 C.3     1  UNL1        0.0294
     21 C          60.9334   90.4769   11.5816 C.3     1  UNL1        0.0666
     22 S          62.1035   90.0830   12.4334 S.3     1  UNL1       -0.0756
     23 C          63.4861   91.5153    9.8476 C.3     1  UNL1        0.1340
     24 N          63.9732   91.5937   11.2642 N.ar    1  UNL1       -0.2884
     25 C          63.3377   90.9353   12.4527 C.ar    1  UNL1        0.1932
     26 N          64.1530   91.2789   13.6640 N.ar    1  UNL1       -0.1221
     27 N          65.2925   92.1496   13.2241 N.ar    1  UNL1       -0.1282
     28 C          65.1814   92.3442   11.7408 C.ar    1  UNL1        0.1683
     29 C          66.1146   93.1481   10.8847 C.ar    1  UNL1        0.0551
     30 C          67.3171   92.4961   10.2692 C.ar    1  UNL1        0.0062
     31 C          68.2503   93.3000    9.4131 C.ar    1  UNL1        0.0208
     32 C          67.9808   94.7559    9.1725 C.ar    1  UNL1        0.0989
     33 N          66.7783   95.4079    9.7880 N.ar    1  UNL1       -0.2422
     34 C          65.8451   94.6039   10.6441 C.ar    1  UNL1        0.1019
@<TRIPOS>BOND
     1    23    24    1
     2    24    25   ar
     3    25    22    1
     4    22    21    1
     5    21    20    1
     6    20    19    1
     7    19     1    1
     8     1     2    1
     9     2     3    1
    10     3     4    1
    11     4     5    1
    12     5     6    1
    13     6     9    1
    14     9    10   ar
    15    10    11   ar
    16    11    12   ar
    17    12    13   ar
    18    13    14   ar
    19    14    15    1
    20    15    16    1
    21    15    17    1
    22    15    18    1
    23     6     7    1
    24     7     8    1
    25    25    26   ar
    26    26    27   ar
    27    27    28   ar
    28    28    29    1
    29    29    30   ar
    30    30    31   ar
    31    31    32   ar
    32    32    33   ar
    33    33    34   ar
    34    28    24   ar
    35    34    29   ar
    36     8     1    1
    37     7     3    1
    38    14     9   ar
@<TRIPOS>MOLECULE
*****
 34 38 0 0 0
SMALL
GASTEIGER

@<TRIPOS>ATOM
      1 N          60.6125   87.2896   10.0293 N.3     1  UNL1       -0.2712
      2 C          61.2455   86.7726    8.7716 C.3     1  UNL1        0.0738
      3 C          62.2178   85.6953    9.1511 C.3     1  UNL1        0.0372
      4 C          63.2100   84.7099    8.6084 C.3     1  UNL1        0.0245
      5 C          63.7912   83.9522    9.7652 C.3     1  UNL1        0.0909
      6 N          63.1580   84.4693   11.0229 N.pl3   1  UNL1       -0.3077
      7 C          62.1857   85.5466   10.6434 C.3     1  UNL1        0.0901
      8 C          61.1935   86.5320   11.1861 C.3     1  UNL1        0.0921
      9 C          63.4466   83.9928   12.4156 C.ar    1  UNL1        0.0517
     10 C          63.7276   84.9852   13.5047 C.ar    1  UNL1        0.0145
     11 C          64.0162   84.5087   14.8975 C.ar    1  UNL1        0.0013
     12 C          64.0238   83.0398   15.2011 C.ar    1  UNL1        0.0000
     13 C          63.7429   82.0473   14.1119 C.ar    1  UNL1        0.0051
     14 C          63.4543   82.5238   12.7192 C.ar    1  UNL1        0.0847
     15 C          63.1733   81.5314   11.6301 C.3     1  UNL1        0.4197
     16 F          62.8923   80.5390   10.5410 F       1  UNL1       -0.1658
     17 F          61.7301   81.4934   12.0371 F       1  UNL1       -0.1658
     18 F          64.6166   81.5694   11.2231 F       1  UNL1       -0.1658
     19 C          59.5797   88.3740   10.1151 C.3     1  UNL1        0.0731
     20 C          59.6946   89.4377   11.1665 C.3     1  UNL1        0.0294
     21 C          60.9284   90.2875   11.2420 C.3     1  UNL1        0.0666
     22 S          61.9495   90.0338   12.3110 S.3     1  UNL1       -0.0756
     23 C          63.4944   91.4544    9.8121 C.3     1  UNL1        0.1340
     24 N          63.8767   91.5581   11.2588 N.ar    1  UNL1       -0.2884
     25 C          63.1667   90.9052   12.4074 C.ar    1  UNL1        0.1932
     26 N          63.8874   91.2765   13.6695 N.ar    1  UNL1       -0.1221
     27 N          65.0429   92.1590   13.3008 N.ar    1  UNL1       -0.1282
     28 C          65.0364   92.3331   11.8109 C.ar    1  UNL1        0.1683
     29 C          66.0173   93.1403   11.0132 C.ar    1  UNL1        0.0551
     30 C          65.8780   94.6321   10.9413 C.ar    1  UNL1        0.0062
     31 C          66.8589   95.4394   10.1436 C.ar    1  UNL1        0.0208
     32 C          67.9790   94.7547    9.4179 C.ar    1  UNL1        0.0989
     33 N          68.1182   93.2629    9.4898 N.ar    1  UNL1       -0.2422
     34 C          67.1373   92.4557   10.2875 C.ar    1  UNL1        0.1019
@<TRIPOS>BOND
     1    23    24    1
     2    24    25   ar
     3    25    22    1
     4    22    21    1
     5    21    20    1
     6    20    19    1
     7    19     1    1
     8     1     2    1
     9     2     3    1
    10     3     4    1
    11     4     5    1
    12     5     6    1
    13     6     9    1
    14     9    10   ar
    15    10    11   ar
    16    11    12   ar
    17    12    13   ar
    18    13    14   ar
    19    14    15    1
    20    15    16    1
    21    15    17    1
    22    15    18    1
    23     6     7    1
    24     7     8    1
    25    25    26   ar
    26    26    27   ar
    27    27    28   ar
    28    28    29    1
    29    29    30   ar
    30    30    31   ar
    31    31    32   ar
    32    32    33   ar
    33    33    34   ar
    34    28    24   ar
    35    34    29   ar
    36     8     1    1
    37     7     3    1
    38    14     9   ar
@<TRIPOS>MOLECULE
*****
 34 38 0 0 0
SMALL
GASTEIGER

@<TRIPOS>ATOM
      1 N          61.6567   85.6137    9.3489 N.3     1  UNL1       -0.2712
      2 C          62.5871   84.5324    8.8853 C.3     1  UNL1        0.0738
      3 C          63.3882   84.0722   10.0670 C.3     1  UNL1        0.0372
      4 C          64.4584   83.1194   10.5109 C.3     1  UNL1        0.0245
      5 C          64.6844   83.3274   11.9791 C.3     1  UNL1        0.0909
      6 N          63.7539   84.4088   12.4427 N.pl3   1  UNL1       -0.3077
      7 C          62.9528   84.8691   11.2610 C.3     1  UNL1        0.0901
      8 C          61.8827   85.8218   10.8171 C.3     1  UNL1        0.0921
      9 C          63.6438   84.9372   13.8422 C.ar    1  UNL1        0.0517
     10 C          64.1011   86.3309   14.1559 C.ar    1  UNL1        0.0145
     11 C          63.9910   86.8592   15.5555 C.ar    1  UNL1        0.0013
     12 C          63.4237   85.9938   16.6413 C.ar    1  UNL1        0.0000
     13 C          62.9663   84.6001   16.3277 C.ar    1  UNL1        0.0051
     14 C          63.0764   84.0717   14.9281 C.ar    1  UNL1        0.0847
     15 C          62.6191   82.6780   14.6145 C.3     1  UNL1        0.4197
     16 F          62.1618   81.2843   14.3008 F       1  UNL1       -0.1658
     17 F          61.2115   83.1738   14.4637 F       1  UNL1       -0.1658
     18 F          64.0268   82.1822   14.7652 F       1  UNL1       -0.1658
     19 C          60.6729   86.3566    8.4943 C.3     1  UNL1        0.0731
     20 C          60.6352   87.8558    8.5245 C.3     1  UNL1        0.0294
     21 C          59.9755   88.5668    9.6688 C.3     1  UNL1        0.0666
     22 S          60.4635   89.9204   10.0923 S.3     1  UNL1       -0.0756
     23 C          63.3150   91.5076   10.0943 C.3     1  UNL1        0.1340
     24 N          62.7107   90.7789   11.2579 N.ar    1  UNL1       -0.2884
     25 C          61.4000   90.0493   11.2570 C.ar    1  UNL1        0.1932
     26 N          61.1903   89.4713   12.6251 N.ar    1  UNL1       -0.1221
     27 N          62.3713   89.8436   13.4717 N.ar    1  UNL1       -0.1282
     28 C          63.3110   90.6517   12.6267 C.ar    1  UNL1        0.1683
     29 C          64.6210   91.2310   13.0722 C.ar    1  UNL1        0.0551
     30 C          65.2622   92.3320   12.2807 C.ar    1  UNL1        0.0062
     31 C          66.5721   92.9113   12.7262 C.ar    1  UNL1        0.0208
     32 C          67.2408   92.3894   13.9634 C.ar    1  UNL1        0.0989
     33 N          66.5996   91.2884   14.7550 N.ar    1  UNL1       -0.2422
     34 C          65.2896   90.7092   14.3094 C.ar    1  UNL1        0.1019
@<TRIPOS>BOND
     1    23    24    1
     2    24    25   ar
     3    25    22    1
     4    22    21    1
     5    21    20    1
     6    20    19    1
     7    19     1    1
     8     1     2    1
     9     2     3    1
    10     3     4    1
    11     4     5    1
    12     5     6    1
    13     6     9    1
    14     9    10   ar
    15    10    11   ar
    16    11    12   ar
    17    12    13   ar
    18    13    14   ar
    19    14    15    1
    20    15    16    1
    21    15    17    1
    22    15    18    1
    23     6     7    1
    24     7     8    1
    25    25    26   ar
    26    26    27   ar
    27    27    28   ar
    28    28    29    1
    29    29    30   ar
    30    30    31   ar
    31    31    32   ar
    32    32    33   ar
    33    33    34   ar
    34    28    24   ar
    35    34    29   ar
    36     8     1    1
    37     7     3    1
    38    14     9   ar
