@<TRIPOS>MOLECULE
*****
 55 61 0 0 0
SMALL
GASTEIGER

@<TRIPOS>ATOM
      1 C          60.8223   88.6612    9.4759 C.2     1  UNL1        0.2201
      2 N          59.9704   89.5286    8.5973 N.2     1  UNL1       -0.0470
      3 C          59.4719   89.0050    7.2832 C.cat   1  UNL1        0.4657
      4 N          59.8253   87.6138    6.8474 N.2     1  UNL1        0.0297
      5 C          60.6772   86.7464    7.7260 C.2     1  UNL1        0.3701
      6 N          61.1850   85.3444    7.5630 N.2     1  UNL1       -0.0340
      7 C          61.9973   85.0016    8.7765 C.2     1  UNL1        0.2322
      8 C          61.9916   86.1918    9.6895 C.2     1  UNL1        0.0456
      9 C          61.1757   87.2701    9.0402 C.3     1  UNL1        0.2120
     10 C          62.7951   89.9134   12.5752 C.ar    1  UNL1        0.0727
     11 C          61.3806   90.0684   13.0499 C.ar    1  UNL1        0.0251
     12 C          60.4695   89.6182   11.9467 C.ar    1  UNL1        0.0827
     13 N          61.3207   89.1850   10.7901 N.ar    1  UNL1       -0.2780
     14 C          62.7581   89.3674   11.1785 C.ar    1  UNL1        0.0870
     15 N          64.5534   91.6515   13.3734 N.am    1  UNL1       -0.2809
     16 C          64.0297   90.2460   13.3594 C.2     1  UNL1        0.2510
     17 O          64.7408   89.1730   14.1296 O.2     1  UNL1       -0.2698
     18 H          64.0868   92.3558   12.8679 H       1  UNL1        0.1552
     19 C          67.1171   92.0627   13.4665 C.ar    1  UNL1       -0.0090
     20 C          68.3517   92.3952   14.2508 C.ar    1  UNL1       -0.0031
     21 C          68.2574   92.6492   15.7262 C.ar    1  UNL1       -0.0006
     22 C          66.9284   92.5705   16.4172 C.ar    1  UNL1       -0.0031
     23 C          65.6938   92.2380   15.6330 C.ar    1  UNL1       -0.0090
     24 C          65.7881   91.9841   14.1577 C.ar    1  UNL1        0.0425
     25 C          66.8461   92.8911   11.0191 C.3     1  UNL1        0.0051
     26 C          67.2115   91.8088   11.9913 C.3     1  UNL1        0.0276
     27 C          64.3648   92.1594   16.3240 C.3     1  UNL1        0.0276
     28 C          63.8066   90.8266   16.7270 C.3     1  UNL1        0.0051
     29 N          58.6200   89.8724    6.4046 N.pl3   1  UNL1       -0.1895
     30 H          57.6406   89.8631    6.5046 H       1  UNL1        0.2524
     31 C          59.2603   90.7540    5.3736 C.ar    1  UNL1        0.1435
     32 C          60.7005   90.5537    5.0056 C.ar    1  UNL1        0.0356
     33 C          61.3408   91.4353    3.9746 C.ar    1  UNL1        0.0174
     34 C          60.5408   92.5172    3.3117 C.ar    1  UNL1        0.0511
     35 C          59.1006   92.7175    3.6797 C.ar    1  UNL1        0.0541
     36 C          58.4603   91.8359    4.7107 C.ar    1  UNL1        0.1684
     37 N          61.1811   93.3988    2.2807 N.pl3   1  UNL1       -0.3072
     38 C          60.6002   94.7496    1.9840 C.3     1  UNL1        0.0937
     39 C          61.2403   95.6313    0.9531 C.3     1  UNL1        0.0573
     40 C          62.4613   95.1622    0.2189 C.3     1  UNL1        0.1596
     41 O          62.2830   96.5130   -0.4085 O.3     1  UNL1       -0.3780
     42 C          63.0422   93.8114    0.5156 C.3     1  UNL1        0.0573
     43 C          62.4021   92.9297    1.5466 C.3     1  UNL1        0.0937
     44 H          61.5078   96.9493   -0.0217 H       1  UNL1        0.2109
     45 C          63.6204   95.1622   -0.7332 C.2     1  UNL1        0.2499
     46 O          65.0014   95.4675   -0.2336 O.2     1  UNL1       -0.2724
     47 N          63.3985   94.8570   -2.1850 N.am    1  UNL1       -0.2748
     48 C          62.0175   94.5517   -2.6846 C.3     1  UNL1        0.1108
     49 C          61.7956   94.2464   -4.1364 C.3     1  UNL1        0.0939
     50 N          62.9547   94.2465   -5.0885 N.3     1  UNL1       -0.2686
     51 C          62.7328   93.9413   -6.5402 C.3     1  UNL1        0.0897
     52 C          64.3357   94.5518   -4.5889 C.3     1  UNL1        0.0939
     53 C          64.5576   94.8570   -3.1371 C.3     1  UNL1        0.1108
     54 O          57.0200   92.0362    5.0787 O.3     1  UNL1       -0.4687
     55 C          56.0710   90.8749    5.0540 C.3     1  UNL1        0.2526
@<TRIPOS>BOND
     1    25    26    1
     2    26    19    1
     3    19    20   ar
     4    20    21   ar
     5    21    22   ar
     6    22    23   ar
     7    23    27    1
     8    27    28    1
     9    23    24   ar
    10    24    15    1
    11    15    16   am
    12    16    17    2
    13    16    10    1
    14    10    11   ar
    15    11    12   ar
    16    12    13   ar
    17    13     1    1
    18     1     2    2
    19     2     3    1
    20     3    29    1
    21    29    31    1
    22    31    32   ar
    23    32    33   ar
    24    33    34   ar
    25    34    37    1
    26    37    38    1
    27    38    39    1
    28    39    40    1
    29    40    41    1
    30    40    45    1
    31    45    46    2
    32    45    47   am
    33    47    48    1
    34    48    49    1
    35    49    50    1
    36    50    51    1
    37    50    52    1
    38    52    53    1
    39    40    42    1
    40    42    43    1
    41    34    35   ar
    42    35    36   ar
    43    36    54    1
    44    54    55    1
    45     3     4    2
    46     4     5    1
    47     5     6    2
    48     6     7    1
    49     7     8    2
    50     8     9    1
    51    13    14   ar
    52    24    19   ar
    53    14    10   ar
    54     9     1    1
    55    36    31   ar
    56     9     5    1
    57    43    37    1
    58    53    47    1
    59    15    18    1
    60    29    30    1
    61    41    44    1
@<TRIPOS>MOLECULE
*****
 55 61 0 0 0
SMALL
GASTEIGER

@<TRIPOS>ATOM
      1 C          60.7954   88.6394    9.4450 C.2     1  UNL1        0.2201
      2 N          59.9439   89.5033    8.5627 N.2     1  UNL1       -0.0470
      3 C          59.4503   88.9764    7.2481 C.cat   1  UNL1        0.4657
      4 N          59.8082   87.5853    6.8155 N.2     1  UNL1        0.0297
      5 C          60.6597   86.7213    7.6978 C.2     1  UNL1        0.3701
      6 N          61.1712   85.3203    7.5385 N.2     1  UNL1       -0.0340
      7 C          61.9810   84.9814    8.7548 C.2     1  UNL1        0.2322
      8 C          61.9699   86.1730    9.6658 C.2     1  UNL1        0.0456
      9 C          61.1533   87.2484    9.0126 C.3     1  UNL1        0.2120
     10 C          62.7568   89.8994   12.5484 C.ar    1  UNL1        0.0727
     11 C          61.3406   90.0554   13.0176 C.ar    1  UNL1        0.0251
     12 C          60.4335   89.6023   11.9122 C.ar    1  UNL1        0.0827
     13 N          61.2890   89.1664   10.7598 N.ar    1  UNL1       -0.2780
     14 C          62.7249   89.3500   11.1530 C.ar    1  UNL1        0.0870
     15 N          64.5159   91.6384   13.3430 N.am    1  UNL1       -0.2809
     16 C          63.9885   90.2342   13.3362 C.2     1  UNL1        0.2510
     17 O          64.6928   89.1646   14.1174 O.2     1  UNL1       -0.2698
     18 H          64.0537   92.3403   12.8303 H       1  UNL1        0.1552
     19 C          65.6515   92.2084   15.6093 C.ar    1  UNL1       -0.0090
     20 C          66.8833   92.5430   16.3971 C.ar    1  UNL1       -0.0031
     21 C          68.2112   92.6424   15.7067 C.ar    1  UNL1       -0.0006
     22 C          68.3074   92.4071   14.2284 C.ar    1  UNL1       -0.0031
     23 C          67.0756   92.0724   13.4405 C.ar    1  UNL1       -0.0090
     24 C          65.7478   91.9731   14.1309 C.ar    1  UNL1        0.0425
     25 C          63.8210   90.7765   16.7707 C.3     1  UNL1        0.0051
     26 C          64.3236   92.1090   16.2997 C.3     1  UNL1        0.0276
     27 C          67.1718   91.8371   11.9623 C.3     1  UNL1        0.0276
     28 C          66.8779   92.9534   11.0044 C.3     1  UNL1        0.0051
     29 N          58.5987   89.8404    6.3657 N.pl3   1  UNL1       -0.1895
     30 H          57.6183   89.8163    6.4515 H       1  UNL1        0.2524
     31 C          59.2411   90.7411    5.3527 C.ar    1  UNL1        0.1435
     32 C          60.6820   90.5474    4.9836 C.ar    1  UNL1        0.0356
     33 C          61.3243   91.4482    3.9707 C.ar    1  UNL1        0.0174
     34 C          60.5257   92.5426    3.3268 C.ar    1  UNL1        0.0511
     35 C          59.0848   92.7362    3.6959 C.ar    1  UNL1        0.0541
     36 C          58.4425   91.8355    4.7089 C.ar    1  UNL1        0.1684
     37 N          61.1680   93.4434    2.3138 N.pl3   1  UNL1       -0.3072
     38 C          60.5663   94.7843    2.0142 C.3     1  UNL1        0.0937
     39 C          61.2084   95.6852    1.0013 C.3     1  UNL1        0.0573
     40 C          62.4524   95.2450    0.2879 C.3     1  UNL1        0.1596
     41 O          62.2594   96.5961   -0.3345 O.3     1  UNL1       -0.3780
     42 C          63.0541   93.9041    0.5875 C.3     1  UNL1        0.0573
     43 C          62.4119   93.0032    1.6005 C.3     1  UNL1        0.0937
     44 H          61.4684   97.0145    0.0399 H       1  UNL1        0.2109
     45 C          63.6293   95.2741   -0.6416 C.2     1  UNL1        0.2499
     46 O          64.9804   95.6755   -0.1286 O.2     1  UNL1       -0.2724
     47 N          63.4550   94.9017   -2.0842 N.am    1  UNL1       -0.2748
     48 C          62.1039   94.5002   -2.5972 C.3     1  UNL1        0.1108
     49 C          61.9297   94.1278   -4.0398 C.3     1  UNL1        0.0939
     50 N          63.1066   94.1569   -4.9693 N.3     1  UNL1       -0.2686
     51 C          62.9324   93.7846   -6.4118 C.3     1  UNL1        0.0897
     52 C          64.4578   94.5584   -4.4563 C.3     1  UNL1        0.0939
     53 C          64.6320   94.9308   -3.0137 C.3     1  UNL1        0.1108
     54 O          57.0016   92.0292    5.0780 O.3     1  UNL1       -0.4687
     55 C          56.0565   90.8648    5.0477 C.3     1  UNL1        0.2526
@<TRIPOS>BOND
     1    25    26    1
     2    26    19    1
     3    19    20   ar
     4    20    21   ar
     5    21    22   ar
     6    22    23   ar
     7    23    27    1
     8    27    28    1
     9    23    24   ar
    10    24    15    1
    11    15    16   am
    12    16    17    2
    13    16    10    1
    14    10    11   ar
    15    11    12   ar
    16    12    13   ar
    17    13     1    1
    18     1     2    2
    19     2     3    1
    20     3    29    1
    21    29    31    1
    22    31    32   ar
    23    32    33   ar
    24    33    34   ar
    25    34    37    1
    26    37    38    1
    27    38    39    1
    28    39    40    1
    29    40    41    1
    30    40    45    1
    31    45    46    2
    32    45    47   am
    33    47    48    1
    34    48    49    1
    35    49    50    1
    36    50    51    1
    37    50    52    1
    38    52    53    1
    39    40    42    1
    40    42    43    1
    41    34    35   ar
    42    35    36   ar
    43    36    54    1
    44    54    55    1
    45     3     4    2
    46     4     5    1
    47     5     6    2
    48     6     7    1
    49     7     8    2
    50     8     9    1
    51    13    14   ar
    52    24    19   ar
    53    14    10   ar
    54     9     1    1
    55    36    31   ar
    56     9     5    1
    57    43    37    1
    58    53    47    1
    59    15    18    1
    60    29    30    1
    61    41    44    1
@<TRIPOS>MOLECULE
*****
 55 61 0 0 0
SMALL
GASTEIGER

@<TRIPOS>ATOM
      1 C          61.2637   87.0877    9.1603 C.2     1  UNL1        0.2201
      2 N          60.3804   88.2325    8.7614 N.2     1  UNL1       -0.0470
      3 C          59.6851   88.2157    7.4325 C.cat   1  UNL1        0.4657
      4 N          59.8729   87.0539    6.5023 N.2     1  UNL1        0.0297
      5 C          60.7562   85.9091    6.9012 C.2     1  UNL1        0.3701
      6 N          61.1295   84.6374    6.1988 N.2     1  UNL1       -0.0340
      7 C          62.0556   83.8683    7.0937 C.2     1  UNL1        0.2322
      8 C          62.2546   84.6646    8.3492 C.2     1  UNL1        0.0456
      9 C          61.4516   85.9260    8.2302 C.3     1  UNL1        0.2120
     10 C          63.1838   87.8589   12.4442 C.ar    1  UNL1        0.0727
     11 C          62.8744   86.4022   12.6245 C.ar    1  UNL1        0.0251
     12 C          62.1175   85.9361   11.4164 C.ar    1  UNL1        0.0827
     13 N          61.9590   87.1045   10.4893 N.ar    1  UNL1       -0.2780
     14 C          62.6180   88.2929   11.1245 C.ar    1  UNL1        0.0870
     15 N          63.7408   90.2166   13.3826 N.am    1  UNL1       -0.2809
     16 C          63.9282   88.7287   13.4133 C.2     1  UNL1        0.2510
     17 O          64.8600   88.1106   14.4132 O.2     1  UNL1       -0.2698
     18 H          63.1292   90.6224   12.7264 H       1  UNL1        0.1552
     19 C          65.6524   91.9036   13.8827 C.ar    1  UNL1       -0.0090
     20 C          66.3968   92.7734   14.8520 C.ar    1  UNL1       -0.0031
     21 C          65.9741   92.8260   16.2902 C.ar    1  UNL1       -0.0006
     22 C          64.8070   92.0088   16.7593 C.ar    1  UNL1       -0.0031
     23 C          64.0626   91.1390   15.7900 C.ar    1  UNL1       -0.0090
     24 C          64.4853   91.0865   14.3519 C.ar    1  UNL1        0.0425
     25 C          65.7504   92.9910   11.5253 C.3     1  UNL1        0.0051
     26 C          66.0751   91.8511   12.4446 C.3     1  UNL1        0.0276
     27 C          62.8954   90.3218   16.2591 C.3     1  UNL1        0.0276
     28 C          63.1234   88.9740   16.8767 C.3     1  UNL1        0.0051
     29 N          58.8017   89.3606    7.0336 N.pl3   1  UNL1       -0.1895
     30 H          57.9427   89.5029    7.4931 H       1  UNL1        0.2524
     31 C          59.2272   90.2886    5.9346 C.ar    1  UNL1        0.1435
     32 C          60.6804   90.4249    5.5887 C.ar    1  UNL1        0.0356
     33 C          61.1059   91.3529    4.4897 C.ar    1  UNL1        0.0174
     34 C          60.0782   92.1447    3.7367 C.ar    1  UNL1        0.0511
     35 C          58.6250   92.0084    4.0827 C.ar    1  UNL1        0.0541
     36 C          58.1995   91.0803    5.1816 C.ar    1  UNL1        0.1684
     37 N          60.5036   93.0727    2.6377 N.pl3   1  UNL1       -0.3072
     38 C          59.4709   93.8000    1.8285 C.3     1  UNL1        0.0937
     39 C          59.8962   94.7281    0.7295 C.3     1  UNL1        0.0573
     40 C          61.3542   94.9288    0.4397 C.3     1  UNL1        0.1596
     41 O          60.7557   95.8351   -0.5949 O.3     1  UNL1       -0.3780
     42 C          62.3868   94.2015    1.2488 C.3     1  UNL1        0.0573
     43 C          61.9615   93.2734    2.3478 C.3     1  UNL1        0.0937
     44 H          59.7885   95.8088   -0.5273 H       1  UNL1        0.2109
     45 C          62.6043   95.4443   -0.2095 C.2     1  UNL1        0.2499
     46 O          63.4330   96.4866    0.4810 O.2     1  UNL1       -0.2724
     47 N          63.0258   94.9174   -1.5492 N.am    1  UNL1       -0.2748
     48 C          62.1971   93.8751   -2.2398 C.3     1  UNL1        0.1108
     49 C          62.6186   93.3483   -3.5795 C.3     1  UNL1        0.0939
     50 N          63.8687   93.8638   -4.2287 N.3     1  UNL1       -0.2686
     51 C          64.2901   93.3370   -5.5683 C.3     1  UNL1        0.0897
     52 C          64.6974   94.9062   -3.5382 C.3     1  UNL1        0.0939
     53 C          64.2759   95.4330   -2.1985 C.3     1  UNL1        0.1108
     54 O          56.7464   90.9440    5.5276 O.3     1  UNL1       -0.4687
     55 C          55.7142   91.6954    4.7402 C.3     1  UNL1        0.2526
@<TRIPOS>BOND
     1    25    26    1
     2    26    19    1
     3    19    20   ar
     4    20    21   ar
     5    21    22   ar
     6    22    23   ar
     7    23    27    1
     8    27    28    1
     9    23    24   ar
    10    24    15    1
    11    15    16   am
    12    16    17    2
    13    16    10    1
    14    10    11   ar
    15    11    12   ar
    16    12    13   ar
    17    13     1    1
    18     1     2    2
    19     2     3    1
    20     3    29    1
    21    29    31    1
    22    31    32   ar
    23    32    33   ar
    24    33    34   ar
    25    34    37    1
    26    37    38    1
    27    38    39    1
    28    39    40    1
    29    40    41    1
    30    40    45    1
    31    45    46    2
    32    45    47   am
    33    47    48    1
    34    48    49    1
    35    49    50    1
    36    50    51    1
    37    50    52    1
    38    52    53    1
    39    40    42    1
    40    42    43    1
    41    34    35   ar
    42    35    36   ar
    43    36    54    1
    44    54    55    1
    45     3     4    2
    46     4     5    1
    47     5     6    2
    48     6     7    1
    49     7     8    2
    50     8     9    1
    51    13    14   ar
    52    24    19   ar
    53    14    10   ar
    54     9     1    1
    55    36    31   ar
    56     9     5    1
    57    43    37    1
    58    53    47    1
    59    15    18    1
    60    29    30    1
    61    41    44    1
@<TRIPOS>MOLECULE
*****
 55 61 0 0 0
SMALL
GASTEIGER

@<TRIPOS>ATOM
      1 C          61.2585   87.2869    9.1976 C.2     1  UNL1        0.2201
      2 N          60.3928   88.4584    8.8398 N.2     1  UNL1       -0.0470
      3 C          59.6574   88.4759    7.5326 C.cat   1  UNL1        0.4657
      4 N          59.7877   87.3220    6.5831 N.2     1  UNL1        0.0297
      5 C          60.6534   86.1504    6.9410 C.2     1  UNL1        0.3701
      6 N          60.9730   84.8790    6.2122 N.2     1  UNL1       -0.0340
      7 C          61.9060   84.0756    7.0690 C.2     1  UNL1        0.2322
      8 C          62.1629   84.8505    8.3274 C.2     1  UNL1        0.0456
      9 C          61.3888   86.1329    8.2483 C.3     1  UNL1        0.2120
     10 C          63.2420   87.9812   12.4609 C.ar    1  UNL1        0.0727
     11 C          63.0089   86.5036   12.5722 C.ar    1  UNL1        0.0251
     12 C          62.2375   86.0637   11.3633 C.ar    1  UNL1        0.0827
     13 N          61.9939   87.2693   10.5049 N.ar    1  UNL1       -0.2780
     14 C          62.6147   88.4544   11.1832 C.ar    1  UNL1        0.0870
     15 N          63.8168   90.3268   13.4188 N.am    1  UNL1       -0.2809
     16 C          63.9740   88.8355   13.4530 C.2     1  UNL1        0.2510
     17 O          64.8632   88.1984   14.4796 O.2     1  UNL1       -0.2698
     18 H          63.2333   90.7450   12.7451 H       1  UNL1        0.1552
     19 C          65.7192   92.0087   13.9689 C.ar    1  UNL1       -0.0090
     20 C          66.4511   92.8629   14.9611 C.ar    1  UNL1       -0.0031
     21 C          66.0127   92.8896   16.3954 C.ar    1  UNL1       -0.0006
     22 C          64.8424   92.0620   16.8374 C.ar    1  UNL1       -0.0031
     23 C          64.1104   91.2078   15.8452 C.ar    1  UNL1       -0.0090
     24 C          64.5488   91.1811   14.4110 C.ar    1  UNL1        0.0425
     25 C          67.6166   92.0577   12.1949 C.3     1  UNL1        0.0051
     26 C          66.1576   91.9820   12.5347 C.3     1  UNL1        0.0276
     27 C          62.9401   90.3803   16.2872 C.3     1  UNL1        0.0276
     28 C          63.1667   89.0465   16.9352 C.3     1  UNL1        0.0051
     29 N          58.7917   89.6476    7.1747 N.pl3   1  UNL1       -0.1895
     30 H          57.9982   89.8575    7.7183 H       1  UNL1        0.2524
     31 C          59.1350   90.4992    5.9886 C.ar    1  UNL1        0.1435
     32 C          60.5702   90.7094    5.6065 C.ar    1  UNL1        0.0356
     33 C          60.9135   91.5611    4.4203 C.ar    1  UNL1        0.0174
     34 C          59.8216   92.2024    3.6164 C.ar    1  UNL1        0.0511
     35 C          58.3864   91.9922    3.9985 C.ar    1  UNL1        0.0541
     36 C          58.0431   91.1405    5.1846 C.ar    1  UNL1        0.1684
     37 N          60.1648   93.0541    2.4302 N.pl3   1  UNL1       -0.3072
     38 C          60.4185   94.5216    2.6089 C.3     1  UNL1        0.0937
     39 C          60.7617   95.3734    1.4228 C.3     1  UNL1        0.0573
     40 C          60.8512   94.7575    0.0581 C.3     1  UNL1        0.1596
     41 O          61.1750   96.1831   -0.2777 O.3     1  UNL1       -0.3780
     42 C          60.5975   93.2899   -0.1207 C.3     1  UNL1        0.0573
     43 C          60.2543   92.4382    1.0654 C.3     1  UNL1        0.0937
     44 H          61.1546   96.7184    0.5309 H       1  UNL1        0.2109
     45 C          61.0532   94.6367   -1.4234 C.2     1  UNL1        0.2499
     46 O          62.4383   94.5019   -1.9829 O.2     1  UNL1       -0.2724
     47 N          59.8699   94.6508   -2.3452 N.am    1  UNL1       -0.2748
     48 C          58.4848   94.7857   -1.7857 C.3     1  UNL1        0.1108
     49 C          57.3016   94.7998   -2.7076 C.3     1  UNL1        0.0939
     50 N          57.5035   94.6791   -4.1890 N.3     1  UNL1       -0.2686
     51 C          56.3204   94.6932   -5.1108 C.3     1  UNL1        0.0897
     52 C          58.8887   94.5442   -4.7486 C.3     1  UNL1        0.0939
     53 C          60.0719   94.5301   -3.8267 C.3     1  UNL1        0.1108
     54 O          56.6079   90.9303    5.5668 O.3     1  UNL1       -0.4687
     55 C          55.5170   91.5914    4.7776 C.3     1  UNL1        0.2526
@<TRIPOS>BOND
     1    25    26    1
     2    26    19    1
     3    19    20   ar
     4    20    21   ar
     5    21    22   ar
     6    22    23   ar
     7    23    27    1
     8    27    28    1
     9    23    24   ar
    10    24    15    1
    11    15    16   am
    12    16    17    2
    13    16    10    1
    14    10    11   ar
    15    11    12   ar
    16    12    13   ar
    17    13     1    1
    18     1     2    2
    19     2     3    1
    20     3    29    1
    21    29    31    1
    22    31    32   ar
    23    32    33   ar
    24    33    34   ar
    25    34    37    1
    26    37    38    1
    27    38    39    1
    28    39    40    1
    29    40    41    1
    30    40    45    1
    31    45    46    2
    32    45    47   am
    33    47    48    1
    34    48    49    1
    35    49    50    1
    36    50    51    1
    37    50    52    1
    38    52    53    1
    39    40    42    1
    40    42    43    1
    41    34    35   ar
    42    35    36   ar
    43    36    54    1
    44    54    55    1
    45     3     4    2
    46     4     5    1
    47     5     6    2
    48     6     7    1
    49     7     8    2
    50     8     9    1
    51    13    14   ar
    52    24    19   ar
    53    14    10   ar
    54     9     1    1
    55    36    31   ar
    56     9     5    1
    57    43    37    1
    58    53    47    1
    59    15    18    1
    60    29    30    1
    61    41    44    1
