@<TRIPOS>MOLECULE
*****
 39 44 0 0 0
SMALL
GASTEIGER

@<TRIPOS>ATOM
      1 N          64.5485   85.8653   15.8979 N.pl3   1  UNL1       -0.2813
      2 H          65.0335   85.5181   16.6812 H       1  UNL1        0.1551
      3 C          62.9469   83.9483   11.1974 C.ar    1  UNL1        0.0360
      4 C          63.0621   82.6087   10.5323 C.ar    1  UNL1        0.0046
      5 C          63.7548   81.4794   11.2355 C.ar    1  UNL1        0.0208
      6 C          64.3324   81.6895   12.6038 C.ar    1  UNL1        0.1022
      7 N          64.2172   83.0290   13.2689 N.ar    1  UNL1       -0.2081
      8 N          64.6851   83.5309   14.6027 N.ar    1  UNL1       -0.1281
      9 C          64.2816   84.9706   14.7239 C.ar    1  UNL1        0.2396
     10 N          63.5642   85.3584   13.4649 N.ar    1  UNL1       -0.1932
     11 C          63.5244   84.1584   12.5657 C.ar    1  UNL1        0.1667
     12 C          60.8686   87.3366    9.0878 C.ar    1  UNL1        0.1057
     13 C          61.7300   86.3854    8.3112 C.ar    1  UNL1        0.0183
     14 C          62.4228   85.2560    9.0144 C.ar    1  UNL1        0.0014
     15 C          62.2541   85.0777   10.4942 C.ar    1  UNL1        0.0030
     16 C          61.3927   86.0289   11.2708 C.ar    1  UNL1        0.0014
     17 C          60.6999   87.1583   10.5677 C.ar    1  UNL1        0.0183
     18 C          59.4830   89.5955    7.6816 C.3     1  UNL1        0.1816
     19 S          60.1758   88.4660    8.3847 S.O2    1  UNL1        0.0104
     20 O          60.9150   89.4519    9.2400 O.2     1  UNL1       -0.1686
     21 O          59.4366   87.4802    7.5294 O.2     1  UNL1       -0.1686
     22 C          64.0766   87.2889   15.8785 C.ar    1  UNL1        0.0517
     23 C          63.0243   87.7435   16.8461 C.ar    1  UNL1        0.0148
     24 C          62.5523   89.1671   16.8267 C.ar    1  UNL1        0.0025
     25 C          63.1327   90.1363   15.8398 C.ar    1  UNL1        0.0146
     26 C          64.1850   89.6818   14.8723 C.ar    1  UNL1        0.0491
     27 C          64.6569   88.2580   14.8917 C.ar    1  UNL1        0.0292
     28 N          64.7653   90.6509   13.8854 N.pl3   1  UNL1       -0.3074
     29 C          66.0872   91.3030   14.1633 C.3     1  UNL1        0.0922
     30 C          66.6676   92.2722   13.1763 C.3     1  UNL1        0.0374
     31 C          65.9260   92.5892   11.9116 C.3     1  UNL1        0.0611
     32 C          64.6041   91.9370   11.6338 C.3     1  UNL1        0.0374
     33 C          64.0237   90.9679   12.6206 C.3     1  UNL1        0.0922
     34 N          66.5064   93.5583   10.9247 N.3     1  UNL1       -0.2696
     35 C          67.4128   93.0669    9.8352 C.3     1  UNL1        0.1046
     36 C          67.9931   94.0360    8.8483 C.3     1  UNL1        0.1595
     37 O          67.6671   95.4966    8.9509 O.3     1  UNL1       -0.3508
     38 C          66.7608   95.9880   10.0404 C.3     1  UNL1        0.1595
     39 C          66.1804   95.0189   11.0273 C.3     1  UNL1        0.1046
@<TRIPOS>BOND
     1    18    19    1
     2    19    20    2
     3    19    21    2
     4    19    12    1
     5    12    13   ar
     6    13    14   ar
     7    14    15   ar
     8    15     3    1
     9     3     4   ar
    10     4     5   ar
    11     5     6   ar
    12     6     7   ar
    13     7     8   ar
    14     8     9   ar
    15     9     1    1
    16     1    22    1
    17    22    23   ar
    18    23    24   ar
    19    24    25   ar
    20    25    26   ar
    21    26    28    1
    22    28    29    1
    23    29    30    1
    24    30    31    1
    25    31    34    1
    26    34    35    1
    27    35    36    1
    28    36    37    1
    29    37    38    1
    30    38    39    1
    31    31    32    1
    32    32    33    1
    33    26    27   ar
    34     9    10   ar
    35    10    11   ar
    36    15    16   ar
    37    16    17   ar
    38    17    12   ar
    39    11     3   ar
    40    11     7   ar
    41    27    22   ar
    42    33    28    1
    43    39    34    1
    44     1     2    1
