@<TRIPOS>MOLECULE
*****
 40 44 0 0 0
SMALL
GASTEIGER

@<TRIPOS>ATOM
      1 O          64.2576   89.5284   14.6955 O.3     1  UNL1       -0.4727
      2 C          63.6632   85.3503   13.1332 C.ar    1  UNL1        0.0481
      3 C          64.3589   85.5690   14.4440 C.ar    1  UNL1        0.0176
      4 C          64.5570   86.9617   14.9647 C.ar    1  UNL1        0.0382
      5 C          64.0595   88.1357   14.1747 C.ar    1  UNL1        0.1388
      6 C          63.3638   87.9170   12.8640 C.ar    1  UNL1        0.0382
      7 C          63.1657   86.5243   12.3432 C.ar    1  UNL1        0.0176
      8 N          63.0688   81.1723   11.5710 N.3     1  UNL1       -0.1486
      9 C          63.7877   82.1901   10.7359 C.3     1  UNL1        0.1171
     10 C          63.9858   83.5827   11.2567 C.3     1  UNL1        0.1099
     11 N          63.4651   83.9576   12.6125 N.pl3   1  UNL1       -0.3045
     12 C          62.7462   82.9399   13.4475 C.3     1  UNL1        0.1099
     13 C          62.5481   81.5472   12.9268 C.3     1  UNL1        0.1171
     14 O          62.5925   79.2982   12.4434 O.2     1  UNL1       -0.1495
     15 S          62.8707   79.7796   11.0502 S.O2    1  UNL1        0.1303
     16 O          63.1489   80.2610    9.6570 O.2     1  UNL1       -0.1495
     17 C          62.6725   78.3869   10.5294 C.3     1  UNL1        0.5359
     18 F          62.5983   77.8715   11.9361 F       1  UNL1       -0.1493
     19 F          62.7468   78.9024    9.1227 F       1  UNL1       -0.1493
     20 F          62.4744   76.9942   10.0087 F       1  UNL1       -0.1493
     21 C          63.4857   90.6685   14.1004 C.3     1  UNL1        0.2374
     22 C          64.1394   91.5761   13.1010 C.3     1  UNL1        0.1909
     23 C          63.8394   91.6322   11.6324 C.3     1  UNL1        0.1783
     24 O          64.7224   92.6778   11.0184 O.3     1  UNL1       -0.3267
     25 C          65.5682   93.2680   12.1075 C.3     1  UNL1        0.2296
     26 O          65.2079   92.5872   13.3947 O.3     1  UNL1       -0.3255
     27 C          66.1299   94.1089   10.9998 C.ar    1  UNL1        0.0409
     28 C          65.6503   95.5176   10.8106 C.ar    1  UNL1        0.0022
     29 C          66.2120   96.3586    9.7027 C.ar    1  UNL1        0.0113
     30 C          67.2531   95.7910    8.7841 C.ar    1  UNL1        0.0585
     31 CL         67.8148   96.6319    7.6763 Cl      1  UNL1       -0.0822
     32 C          67.7327   94.3822    8.9734 C.ar    1  UNL1        0.0226
     33 C          67.1710   93.5413   10.0811 C.ar    1  UNL1        0.0591
     34 CL         67.6504   92.1327   10.2704 Cl      1  UNL1       -0.0824
     35 C          66.5314   94.0340   12.9652 C.3     1  UNL1        0.1682
     36 N          67.3335   93.3209   14.0132 N.ar    1  UNL1       -0.3025
     37 C          67.6351   93.8307   15.3912 C.ar    1  UNL1        0.0982
     38 C          68.4628   92.7977   16.0967 C.ar    1  UNL1        0.1193
     39 N          68.6728   91.6494   15.1547 N.ar    1  UNL1       -0.2223
     40 C          67.9748   91.9728   13.8669 C.ar    1  UNL1        0.1788
@<TRIPOS>BOND
     1    14    15    2
     2    15    16    2
     3    15     8    1
     4     8     9    1
     5     9    10    1
     6    10    11    1
     7    11     2    1
     8     2     3   ar
     9     3     4   ar
    10     4     5   ar
    11     5     1    1
    12     1    21    1
    13    22    21    1
    14    22    23    1
    15    23    24    1
    16    24    25    1
    17    25    35    1
    18    35    36    1
    19    36    37   ar
    20    37    38   ar
    21    38    39   ar
    22    39    40   ar
    23    25    27    1
    24    27    28   ar
    25    28    29   ar
    26    29    30   ar
    27    30    31    1
    28    30    32   ar
    29    32    33   ar
    30    33    34    1
    31    25    26    1
    32     5     6   ar
    33     6     7   ar
    34    11    12    1
    35    12    13    1
    36    15    17    1
    37    17    18    1
    38    17    19    1
    39    17    20    1
    40    13     8    1
    41     7     2   ar
    42    26    22    1
    43    40    36   ar
    44    33    27   ar
@<TRIPOS>MOLECULE
*****
 40 44 0 0 0
SMALL
GASTEIGER

@<TRIPOS>ATOM
      1 O          64.1829   91.6576   16.6936 O.3     1  UNL1       -0.4727
      2 C          63.6580   87.4391   15.2175 C.ar    1  UNL1        0.0481
      3 C          62.9654   87.8869   16.4703 C.ar    1  UNL1        0.0176
      4 C          63.1403   89.2931   16.9623 C.ar    1  UNL1        0.0382
      5 C          64.0080   90.2514   16.2016 C.ar    1  UNL1        0.1388
      6 C          64.7006   89.8035   14.9488 C.ar    1  UNL1        0.0382
      7 C          64.5257   88.3974   14.4567 C.ar    1  UNL1        0.0176
      8 N          63.1331   83.2206   13.7414 N.3     1  UNL1       -0.1486
      9 C          63.1363   83.5049   15.2142 C.3     1  UNL1        0.1171
     10 C          63.3113   84.9111   15.7062 C.3     1  UNL1        0.1099
     11 N          63.4831   86.0329   14.7255 N.pl3   1  UNL1       -0.3045
     12 C          63.4798   85.7486   13.2527 C.3     1  UNL1        0.1099
     13 C          63.3049   84.3424   12.7607 C.3     1  UNL1        0.1171
     14 O          63.5759   82.1967   11.9371 O.2     1  UNL1       -0.1495
     15 S          62.9581   81.8144   13.2494 S.O2    1  UNL1        0.1303
     16 O          62.3403   81.4321   14.5617 O.2     1  UNL1       -0.1495
     17 C          62.7832   80.4083   12.7574 C.3     1  UNL1        0.5359
     18 F          62.7910   79.9120   14.1729 F       1  UNL1       -0.1493
     19 F          62.7753   80.9045   11.3419 F       1  UNL1       -0.1493
     20 F          62.6082   79.0021   12.2653 F       1  UNL1       -0.1493
     21 C          65.4851   92.3706   16.4793 C.3     1  UNL1        0.2374
     22 C          66.0158   92.5613   15.0894 C.3     1  UNL1        0.1909
     23 C          67.4617   92.5612   14.6899 C.3     1  UNL1        0.1783
     24 O          67.5334   92.7855   13.2085 O.3     1  UNL1       -0.3267
     25 C          66.1318   92.9243   12.6924 C.3     1  UNL1        0.2296
     26 O          65.1939   92.7858   13.8548 O.3     1  UNL1       -0.3255
     27 C          66.8061   93.0995   11.3641 C.ar    1  UNL1        0.0409
     28 C          67.5353   91.9491   10.7356 C.ar    1  UNL1        0.0022
     29 C          68.2097   92.1243    9.4072 C.ar    1  UNL1        0.0113
     30 C          68.1549   93.4498    8.7074 C.ar    1  UNL1        0.0585
     31 CL         68.8293   93.6250    7.3790 Cl      1  UNL1       -0.0822
     32 C          67.4257   94.6003    9.3358 C.ar    1  UNL1        0.0226
     33 C          66.7514   94.4251   10.6641 C.ar    1  UNL1        0.0591
     34 CL         66.0223   95.5754   11.2926 Cl      1  UNL1       -0.0824
     35 C          64.8712   93.0997   11.8986 C.3     1  UNL1        0.1682
     36 N          64.0724   91.8995   11.4845 N.ar    1  UNL1       -0.3025
     37 C          63.5620   90.8229   12.3956 C.ar    1  UNL1        0.0982
     38 C          62.8180   89.8233   11.5608 C.ar    1  UNL1        0.1193
     39 N          62.8685   90.2821   10.1336 N.ar    1  UNL1       -0.2223
     40 C          63.6438   91.5653   10.0864 C.ar    1  UNL1        0.1788
@<TRIPOS>BOND
     1    14    15    2
     2    15    16    2
     3    15     8    1
     4     8     9    1
     5     9    10    1
     6    10    11    1
     7    11     2    1
     8     2     3   ar
     9     3     4   ar
    10     4     5   ar
    11     5     1    1
    12     1    21    1
    13    22    21    1
    14    22    23    1
    15    23    24    1
    16    24    25    1
    17    25    35    1
    18    35    36    1
    19    36    37   ar
    20    37    38   ar
    21    38    39   ar
    22    39    40   ar
    23    25    27    1
    24    27    28   ar
    25    28    29   ar
    26    29    30   ar
    27    30    31    1
    28    30    32   ar
    29    32    33   ar
    30    33    34    1
    31    25    26    1
    32     5     6   ar
    33     6     7   ar
    34    11    12    1
    35    12    13    1
    36    15    17    1
    37    17    18    1
    38    17    19    1
    39    17    20    1
    40    13     8    1
    41     7     2   ar
    42    26    22    1
    43    40    36   ar
    44    33    27   ar
@<TRIPOS>MOLECULE
*****
 40 44 0 0 0
SMALL
GASTEIGER

@<TRIPOS>ATOM
      1 O          58.8882   90.3904    6.6691 O.3     1  UNL1       -0.4727
      2 C          61.0533   92.2449    3.1873 C.ar    1  UNL1        0.0481
      3 C          59.6474   92.6608    3.5039 C.ar    1  UNL1        0.0176
      4 C          58.9256   92.0426    4.6645 C.ar    1  UNL1        0.0382
      5 C          59.6099   91.0086    5.5085 C.ar    1  UNL1        0.1388
      6 C          61.0158   90.5927    5.1920 C.ar    1  UNL1        0.0382
      7 C          61.7376   91.2108    4.0314 C.ar    1  UNL1        0.0176
      8 N          63.2185   94.0993   -0.2945 N.3     1  UNL1       -0.1486
      9 C          61.7191   94.1063   -0.2539 C.3     1  UNL1        0.1171
     10 C          60.9974   93.4881    0.9067 C.3     1  UNL1        0.1099
     11 N          61.7751   92.8630    2.0267 N.pl3   1  UNL1       -0.3045
     12 C          63.2745   92.8560    1.9861 C.3     1  UNL1        0.1099
     13 C          63.9962   93.4742    0.8255 C.3     1  UNL1        0.1171
     14 O          65.1127   95.0144   -0.5678 O.2     1  UNL1       -0.1495
     15 S          63.9402   94.7174   -1.4551 S.O2    1  UNL1        0.1303
     16 O          62.7678   94.4205   -2.3424 O.2     1  UNL1       -0.1495
     17 C          64.6620   95.3356   -2.6157 C.3     1  UNL1        0.5359
     18 F          65.4711   96.1705   -1.6679 F       1  UNL1       -0.1493
     19 F          63.8529   94.5007   -3.5635 F       1  UNL1       -0.1493
     20 F          65.3837   95.9537   -3.7763 F       1  UNL1       -0.1493
     21 C          58.5744   88.9237    6.6621 C.3     1  UNL1        0.2374
     22 C          59.4056   87.9750    7.4740 C.3     1  UNL1        0.1909
     23 C          59.1992   86.4933    7.5829 C.3     1  UNL1        0.1783
     24 O          60.2551   85.9440    8.4958 O.3     1  UNL1       -0.3267
     25 C          61.1141   87.0863    8.9511 C.3     1  UNL1        0.2296
     26 O          60.5891   88.3415    8.3197 O.3     1  UNL1       -0.3255
     27 C          61.8509   86.0234    9.7109 C.ar    1  UNL1        0.0409
     28 C          61.6288   85.8655   11.1860 C.ar    1  UNL1        0.0022
     29 C          62.3656   84.8027   11.9459 C.ar    1  UNL1        0.0113
     30 C          63.3245   83.8977   11.2307 C.ar    1  UNL1        0.0585
     31 CL         64.0613   82.8348   11.9906 Cl      1  UNL1       -0.0822
     32 C          63.5467   84.0556    9.7556 C.ar    1  UNL1        0.0226
     33 C          62.8099   85.1184    8.9958 C.ar    1  UNL1        0.0591
     34 CL         63.0320   85.2763    7.5208 Cl      1  UNL1       -0.0824
     35 C          62.1272   88.0065    9.5653 C.3     1  UNL1        0.1682
     36 N          61.7874   88.7732   10.8090 N.ar    1  UNL1       -0.3025
     37 C          60.4199   89.2405   11.2106 C.ar    1  UNL1        0.0982
     38 C          60.5429   89.9633   12.5192 C.ar    1  UNL1        0.1193
     39 N          61.9864   89.9426   12.9263 N.ar    1  UNL1       -0.2223
     40 C          62.7556   89.2070   11.8693 C.ar    1  UNL1        0.1788
@<TRIPOS>BOND
     1    14    15    2
     2    15    16    2
     3    15     8    1
     4     8     9    1
     5     9    10    1
     6    10    11    1
     7    11     2    1
     8     2     3   ar
     9     3     4   ar
    10     4     5   ar
    11     5     1    1
    12     1    21    1
    13    22    21    1
    14    22    23    1
    15    23    24    1
    16    24    25    1
    17    25    35    1
    18    35    36    1
    19    36    37   ar
    20    37    38   ar
    21    38    39   ar
    22    39    40   ar
    23    25    27    1
    24    27    28   ar
    25    28    29   ar
    26    29    30   ar
    27    30    31    1
    28    30    32   ar
    29    32    33   ar
    30    33    34    1
    31    25    26    1
    32     5     6   ar
    33     6     7   ar
    34    11    12    1
    35    12    13    1
    36    15    17    1
    37    17    18    1
    38    17    19    1
    39    17    20    1
    40    13     8    1
    41     7     2   ar
    42    26    22    1
    43    40    36   ar
    44    33    27   ar
@<TRIPOS>MOLECULE
*****
 40 44 0 0 0
SMALL
GASTEIGER

@<TRIPOS>ATOM
      1 O          58.6672   90.0450    5.5494 O.3     1  UNL1       -0.4727
      2 C          60.7260   87.9174    8.9383 C.ar    1  UNL1        0.0481
      3 C          60.0403   87.1276    7.8631 C.ar    1  UNL1        0.0176
      4 C          59.3540   87.8368    6.7335 C.ar    1  UNL1        0.0382
      5 C          59.3534   89.3358    6.6790 C.ar    1  UNL1        0.1388
      6 C          60.0391   90.1256    7.7542 C.ar    1  UNL1        0.0382
      7 C          60.7254   89.4164    8.8838 C.ar    1  UNL1        0.0176
      8 N          62.7848   85.7899   12.3272 N.3     1  UNL1       -0.1486
      9 C          62.8381   87.2863   12.2384 C.3     1  UNL1        0.1171
     10 C          62.1518   87.9954   11.1087 C.3     1  UNL1        0.1099
     11 N          61.4123   87.2082   10.0679 N.pl3   1  UNL1       -0.3045
     12 C          61.3590   85.7119   10.1567 C.3     1  UNL1        0.1099
     13 C          62.0453   85.0027   11.2864 C.3     1  UNL1        0.1171
     14 O          63.0005   83.7632   12.9156 O.2     1  UNL1       -0.1495
     15 S          63.4711   85.0807   13.4568 S.O2    1  UNL1        0.1303
     16 O          63.9416   86.3981   13.9981 O.2     1  UNL1       -0.1495
     17 C          64.1574   84.3715   14.5865 C.3     1  UNL1        0.5359
     18 F          63.2270   83.2067   14.4204 F       1  UNL1       -0.1493
     19 F          65.0877   85.5363   14.7525 F       1  UNL1       -0.1493
     20 F          64.8436   83.6623   15.7161 F       1  UNL1       -0.1493
     21 C          58.8264   91.5277    5.3876 C.3     1  UNL1        0.2374
     22 C          59.7657   92.0726    4.3528 C.3     1  UNL1        0.1909
     23 C          61.1509   91.5721    4.0686 C.3     1  UNL1        0.1783
     24 O          61.7261   92.4039    2.9607 O.3     1  UNL1       -0.3267
     25 C          60.6964   93.4185    2.5603 C.3     1  UNL1        0.2296
     26 O          59.4848   93.2138    3.4206 O.3     1  UNL1       -0.3255
     27 C          61.7382   93.8544    1.5732 C.ar    1  UNL1        0.0409
     28 C          62.4688   95.1487    1.7761 C.ar    1  UNL1        0.0022
     29 C          63.5107   95.5846    0.7889 C.ar    1  UNL1        0.0113
     30 C          63.8219   94.7263   -0.4012 C.ar    1  UNL1        0.0585
     31 CL         64.8638   95.1622   -1.3884 Cl      1  UNL1       -0.0822
     32 C          63.0913   93.4320   -0.6041 C.ar    1  UNL1        0.0226
     33 C          62.0495   92.9961    0.3830 C.ar    1  UNL1        0.0591
     34 CL         61.3189   91.7019    0.1801 Cl      1  UNL1       -0.0824
     35 C          59.8844   94.5243    1.9535 C.3     1  UNL1        0.1682
     36 N          59.1731   94.3049    0.6513 N.ar    1  UNL1       -0.3025
     37 C          58.3814   93.0883    0.2732 C.ar    1  UNL1        0.0982
     38 C          57.8476   93.2951   -1.1132 C.ar    1  UNL1        0.1193
     39 N          58.3095   94.6395   -1.5920 N.ar    1  UNL1       -0.2223
     40 C          59.1287   95.2636   -0.5015 C.ar    1  UNL1        0.1788
@<TRIPOS>BOND
     1    14    15    2
     2    15    16    2
     3    15     8    1
     4     8     9    1
     5     9    10    1
     6    10    11    1
     7    11     2    1
     8     2     3   ar
     9     3     4   ar
    10     4     5   ar
    11     5     1    1
    12     1    21    1
    13    22    21    1
    14    22    23    1
    15    23    24    1
    16    24    25    1
    17    25    35    1
    18    35    36    1
    19    36    37   ar
    20    37    38   ar
    21    38    39   ar
    22    39    40   ar
    23    25    27    1
    24    27    28   ar
    25    28    29   ar
    26    29    30   ar
    27    30    31    1
    28    30    32   ar
    29    32    33   ar
    30    33    34    1
    31    25    26    1
    32     5     6   ar
    33     6     7   ar
    34    11    12    1
    35    12    13    1
    36    15    17    1
    37    17    18    1
    38    17    19    1
    39    17    20    1
    40    13     8    1
    41     7     2   ar
    42    26    22    1
    43    40    36   ar
    44    33    27   ar
@<TRIPOS>MOLECULE
*****
 40 44 0 0 0
SMALL
GASTEIGER

@<TRIPOS>ATOM
      1 O          58.7496   90.9012    6.5578 O.3     1  UNL1       -0.4727
      2 C          60.8121   87.6119    8.8329 C.ar    1  UNL1        0.0481
      3 C          59.9360   87.2786    7.6619 C.ar    1  UNL1        0.0176
      4 C          59.2484   88.3751    6.9035 C.ar    1  UNL1        0.0382
      5 C          59.4371   89.8048    7.3161 C.ar    1  UNL1        0.1388
      6 C          60.3132   90.1381    8.4871 C.ar    1  UNL1        0.0382
      7 C          61.0008   89.0416    9.2455 C.ar    1  UNL1        0.0176
      8 N          62.8747   84.3226   11.1080 N.3     1  UNL1       -0.1486
      9 C          63.1357   84.4979    9.6414 C.3     1  UNL1        0.1171
     10 C          62.4482   85.5943    8.8830 C.3     1  UNL1        0.1099
     11 N          61.4996   86.5155    9.5913 N.pl3   1  UNL1       -0.3045
     12 C          61.2386   86.3401   11.0579 C.3     1  UNL1        0.1099
     13 C          61.9261   85.2437   11.8163 C.3     1  UNL1        0.1171
     14 O          62.5978   83.4062   13.0011 O.2     1  UNL1       -0.1495
     15 S          63.5622   83.2261   11.8664 S.O2    1  UNL1        0.1303
     16 O          64.5266   83.0460   10.7317 O.2     1  UNL1       -0.1495
     17 C          64.2497   82.1297   12.6248 C.3     1  UNL1        0.5359
     18 F          64.8367   83.1448   13.5602 F       1  UNL1       -0.1493
     19 F          63.6627   81.1146   11.6893 F       1  UNL1       -0.1493
     20 F          64.9372   81.0332   13.3831 F       1  UNL1       -0.1493
     21 C          58.6711   90.8428    5.0610 C.3     1  UNL1        0.2374
     22 C          59.6816   91.5742    4.2279 C.3     1  UNL1        0.1909
     23 C          61.1696   91.3949    4.2879 C.3     1  UNL1        0.1783
     24 O          61.7891   92.3232    3.2856 O.3     1  UNL1       -0.3267
     25 C          60.6840   93.0761    2.6061 C.3     1  UNL1        0.2296
     26 O          59.3814   92.6133    3.1884 O.3     1  UNL1       -0.3255
     27 C          61.8044   93.7247    1.8486 C.ar    1  UNL1        0.0409
     28 C          62.8954   92.8827    1.2562 C.ar    1  UNL1        0.0022
     29 C          64.0158   93.5313    0.4987 C.ar    1  UNL1        0.0113
     30 C          64.0454   95.0219    0.3335 C.ar    1  UNL1        0.0585
     31 CL         65.1658   95.6705   -0.4240 Cl      1  UNL1       -0.0822
     32 C          62.9544   95.8639    0.9259 C.ar    1  UNL1        0.0226
     33 C          61.8340   95.2153    1.6834 C.ar    1  UNL1        0.0591
     34 CL         60.7430   96.0573    2.2758 Cl      1  UNL1       -0.0824
     35 C          59.8129   93.9647    1.7683 C.3     1  UNL1        0.1682
     36 N          59.2921   93.4765    0.4490 N.ar    1  UNL1       -0.3025
     37 C          58.2684   94.1650   -0.4040 C.ar    1  UNL1        0.0982
     38 C          58.0472   93.3281   -1.6290 C.ar    1  UNL1        0.1193
     39 N          58.9343   92.1224   -1.5331 N.ar    1  UNL1       -0.2223
     40 C          59.7037   92.2141   -0.2487 C.ar    1  UNL1        0.1788
@<TRIPOS>BOND
     1    14    15    2
     2    15    16    2
     3    15     8    1
     4     8     9    1
     5     9    10    1
     6    10    11    1
     7    11     2    1
     8     2     3   ar
     9     3     4   ar
    10     4     5   ar
    11     5     1    1
    12     1    21    1
    13    22    21    1
    14    22    23    1
    15    23    24    1
    16    24    25    1
    17    25    35    1
    18    35    36    1
    19    36    37   ar
    20    37    38   ar
    21    38    39   ar
    22    39    40   ar
    23    25    27    1
    24    27    28   ar
    25    28    29   ar
    26    29    30   ar
    27    30    31    1
    28    30    32   ar
    29    32    33   ar
    30    33    34    1
    31    25    26    1
    32     5     6   ar
    33     6     7   ar
    34    11    12    1
    35    12    13    1
    36    15    17    1
    37    17    18    1
    38    17    19    1
    39    17    20    1
    40    13     8    1
    41     7     2   ar
    42    26    22    1
    43    40    36   ar
    44    33    27   ar
@<TRIPOS>MOLECULE
*****
 40 44 0 0 0
SMALL
GASTEIGER

@<TRIPOS>ATOM
      1 O          62.3110   91.2182   10.4740 O.3     1  UNL1       -0.4727
      2 C          62.4716   86.8389   11.4968 C.ar    1  UNL1        0.0481
      3 C          63.1481   87.8416   12.3839 C.ar    1  UNL1        0.0176
      4 C          63.0945   89.3014   12.0430 C.ar    1  UNL1        0.0382
      5 C          62.3645   89.7585   10.8149 C.ar    1  UNL1        0.1388
      6 C          61.6880   88.7558    9.9278 C.ar    1  UNL1        0.0382
      7 C          61.7416   87.2961   10.2687 C.ar    1  UNL1        0.0176
      8 N          62.6322   82.4597   12.5195 N.3     1  UNL1       -0.1486
      9 C          62.7037   82.8984   11.0869 C.3     1  UNL1        0.1171
     10 C          62.6501   84.3581   10.7460 C.3     1  UNL1        0.1099
     11 N          62.5251   85.3792   11.8377 N.pl3   1  UNL1       -0.3045
     12 C          62.4536   84.9405   13.2703 C.3     1  UNL1        0.1099
     13 C          62.5072   83.4807   13.6112 C.3     1  UNL1        0.1171
     14 O          62.5175   81.3330   14.3133 O.2     1  UNL1       -0.1495
     15 S          62.6857   80.9999   12.8604 S.O2    1  UNL1        0.1303
     16 O          62.8539   80.6668   11.4076 O.2     1  UNL1       -0.1495
     17 C          62.7393   79.5401   13.2013 C.3     1  UNL1        0.5359
     18 F          62.5615   79.1952   11.7524 F       1  UNL1       -0.1493
     19 F          62.9170   79.8850   14.6503 F       1  UNL1       -0.1493
     20 F          62.7928   78.0804   13.5423 F       1  UNL1       -0.1493
     21 C          63.5571   91.9343   10.0446 C.3     1  UNL1        0.2374
     22 C          64.6182   92.2632   11.0525 C.3     1  UNL1        0.1909
     23 C          65.4733   93.4955   11.0624 C.3     1  UNL1        0.1783
     24 O          66.3942   93.4114   12.2434 O.3     1  UNL1       -0.3267
     25 C          66.1083   92.1270   12.9635 C.3     1  UNL1        0.2296
     26 O          65.0107   91.4173   12.2275 O.3     1  UNL1       -0.3255
     27 C          67.1934   92.5882   13.8905 C.ar    1  UNL1        0.0409
     28 C          66.8578   93.4646   15.0608 C.ar    1  UNL1        0.0022
     29 C          67.9431   93.9259   15.9879 C.ar    1  UNL1        0.0113
     30 C          69.3639   93.5109   15.7448 C.ar    1  UNL1        0.0585
     31 CL         70.4491   93.9722   16.6718 Cl      1  UNL1       -0.0822
     32 C          69.6995   92.6345   14.5744 C.ar    1  UNL1        0.0226
     33 C          68.6143   92.1733   13.6474 C.ar    1  UNL1        0.0591
     34 CL         68.9498   91.2970   12.4772 Cl      1  UNL1       -0.0824
     35 C          66.0492   90.9389   13.8774 C.3     1  UNL1        0.1682
     36 N          64.9528   90.8294   14.8953 N.ar    1  UNL1       -0.3025
     37 C          64.1780   89.5885   15.2264 C.ar    1  UNL1        0.0982
     38 C          63.1852   89.9338   16.2965 C.ar    1  UNL1        0.1193
     39 N          63.3465   91.3880   16.6267 N.ar    1  UNL1       -0.2223
     40 C          64.4390   91.9415   15.7607 C.ar    1  UNL1        0.1788
@<TRIPOS>BOND
     1    14    15    2
     2    15    16    2
     3    15     8    1
     4     8     9    1
     5     9    10    1
     6    10    11    1
     7    11     2    1
     8     2     3   ar
     9     3     4   ar
    10     4     5   ar
    11     5     1    1
    12     1    21    1
    13    22    21    1
    14    22    23    1
    15    23    24    1
    16    24    25    1
    17    25    35    1
    18    35    36    1
    19    36    37   ar
    20    37    38   ar
    21    38    39   ar
    22    39    40   ar
    23    25    27    1
    24    27    28   ar
    25    28    29   ar
    26    29    30   ar
    27    30    31    1
    28    30    32   ar
    29    32    33   ar
    30    33    34    1
    31    25    26    1
    32     5     6   ar
    33     6     7   ar
    34    11    12    1
    35    12    13    1
    36    15    17    1
    37    17    18    1
    38    17    19    1
    39    17    20    1
    40    13     8    1
    41     7     2   ar
    42    26    22    1
    43    40    36   ar
    44    33    27   ar
@<TRIPOS>MOLECULE
*****
 40 44 0 0 0
SMALL
GASTEIGER

@<TRIPOS>ATOM
      1 O          59.1562   89.5957    7.3351 O.3     1  UNL1       -0.4727
      2 C          60.1007   92.0147    3.6601 C.ar    1  UNL1        0.0481
      3 C          58.7028   91.9905    4.2032 C.ar    1  UNL1        0.0176
      4 C          58.3879   91.1842    5.4282 C.ar    1  UNL1        0.0382
      5 C          59.4711   90.4020    6.1101 C.ar    1  UNL1        0.1388
      6 C          60.8690   90.4262    5.5670 C.ar    1  UNL1        0.0382
      7 C          61.1839   91.2325    4.3419 C.ar    1  UNL1        0.0176
      8 N          61.0452   94.4337   -0.0150 N.3     1  UNL1       -0.1486
      9 C          62.1308   94.1067    0.9671 C.3     1  UNL1        0.1171
     10 C          61.8160   93.3004    2.1921 C.3     1  UNL1        0.1099
     11 N          60.4156   92.8210    2.4350 N.pl3   1  UNL1       -0.3045
     12 C          59.3300   93.1481    1.4529 C.3     1  UNL1        0.1099
     13 C          59.6448   93.9544    0.2279 C.3     1  UNL1        0.1171
     14 O          60.0206   94.8880   -1.8160 O.2     1  UNL1       -0.1495
     15 S          61.3601   95.2401   -1.2401 S.O2    1  UNL1        0.1303
     16 O          62.6996   95.5921   -0.6641 O.2     1  UNL1       -0.1495
     17 C          61.6749   96.0464   -2.4651 C.3     1  UNL1        0.5359
     18 F          63.1069   96.1479   -2.0302 F       1  UNL1       -0.1493
     19 F          60.2429   95.9449   -2.8999 F       1  UNL1       -0.1493
     20 F          61.9898   96.8527   -3.6901 F       1  UNL1       -0.1493
     21 C          59.6865   90.0235    8.6714 C.3     1  UNL1        0.2374
     22 C          60.3554   89.0241    9.5679 C.3     1  UNL1        0.1909
     23 C          60.1303   88.8735   11.0432 C.3     1  UNL1        0.1783
     24 O          61.0026   87.7560   11.5336 O.3     1  UNL1       -0.3267
     25 C          61.7669   87.2160   10.3613 C.3     1  UNL1        0.2296
     26 O          61.3669   87.9997    9.1463 O.3     1  UNL1       -0.3255
     27 C          62.3521   86.2785   11.3753 C.ar    1  UNL1        0.0409
     28 C          62.0886   84.8052   11.2747 C.ar    1  UNL1        0.0022
     29 C          62.6739   83.8676   12.2888 C.ar    1  UNL1        0.0113
     30 C          63.5227   84.4033   13.4035 C.ar    1  UNL1        0.0585
     31 CL         64.1081   83.4658   14.4176 Cl      1  UNL1       -0.0822
     32 C          63.7863   85.8766   13.5041 C.ar    1  UNL1        0.0226
     33 C          63.2010   86.8141   12.4900 C.ar    1  UNL1        0.0591
     34 CL         63.4645   88.2874   12.5906 Cl      1  UNL1       -0.0824
     35 C          62.6535   86.4800    9.4009 C.3     1  UNL1        0.1682
     36 N          62.0565   85.7708    8.2217 N.ar    1  UNL1       -0.3025
     37 C          62.7866   84.8640    7.2759 C.ar    1  UNL1        0.0982
     38 C          61.8059   84.3766    6.2510 C.ar    1  UNL1        0.1193
     39 N          60.4696   84.9822    6.5632 N.ar    1  UNL1       -0.2223
     40 C          60.6245   85.8439    7.7812 C.ar    1  UNL1        0.1788
@<TRIPOS>BOND
     1    14    15    2
     2    15    16    2
     3    15     8    1
     4     8     9    1
     5     9    10    1
     6    10    11    1
     7    11     2    1
     8     2     3   ar
     9     3     4   ar
    10     4     5   ar
    11     5     1    1
    12     1    21    1
    13    22    21    1
    14    22    23    1
    15    23    24    1
    16    24    25    1
    17    25    35    1
    18    35    36    1
    19    36    37   ar
    20    37    38   ar
    21    38    39   ar
    22    39    40   ar
    23    25    27    1
    24    27    28   ar
    25    28    29   ar
    26    29    30   ar
    27    30    31    1
    28    30    32   ar
    29    32    33   ar
    30    33    34    1
    31    25    26    1
    32     5     6   ar
    33     6     7   ar
    34    11    12    1
    35    12    13    1
    36    15    17    1
    37    17    18    1
    38    17    19    1
    39    17    20    1
    40    13     8    1
    41     7     2   ar
    42    26    22    1
    43    40    36   ar
    44    33    27   ar
@<TRIPOS>MOLECULE
*****
 40 44 0 0 0
SMALL
GASTEIGER

@<TRIPOS>ATOM
      1 O          61.9601   90.8515   10.0704 O.3     1  UNL1       -0.4727
      2 C          62.2645   86.5280   11.2807 C.ar    1  UNL1        0.0481
      3 C          61.5908   86.9008    9.9935 C.ar    1  UNL1        0.0176
      4 C          61.4893   88.3420    9.5900 C.ar    1  UNL1        0.0382
      5 C          62.0616   89.4103   10.4738 C.ar    1  UNL1        0.1388
      6 C          62.7354   89.0375   11.7611 C.ar    1  UNL1        0.0382
      7 C          62.8368   87.5963   12.1645 C.ar    1  UNL1        0.0176
      8 N          62.5690   82.2045   12.4910 N.3     1  UNL1       -0.1486
      9 C          62.3818   83.2644   13.5357 C.3     1  UNL1        0.1171
     10 C          62.2804   84.7056   13.1323 C.3     1  UNL1        0.1099
     11 N          62.3660   85.0868   11.6841 N.pl3   1  UNL1       -0.3045
     12 C          62.5531   84.0269   10.6394 C.3     1  UNL1        0.1099
     13 C          62.6546   82.5858   11.0428 C.3     1  UNL1        0.1171
     14 O          62.7877   80.3679   11.4523 O.2     1  UNL1       -0.1495
     15 S          62.6704   80.7634   12.8944 S.O2    1  UNL1        0.1303
     16 O          62.5532   81.1588   14.3366 O.2     1  UNL1       -0.1495
     17 C          62.7719   79.3222   13.2979 C.3     1  UNL1        0.5359
     18 F          62.4759   78.9065   11.8873 F       1  UNL1       -0.1493
     19 F          63.0679   79.7379   14.7084 F       1  UNL1       -0.1493
     20 F          62.8734   77.8810   13.7013 F       1  UNL1       -0.1493
     21 C          63.2036   91.6379    9.7783 C.3     1  UNL1        0.2374
     22 C          64.2088   91.8824   10.8645 C.3     1  UNL1        0.1909
     23 C          64.0734   91.4699   12.3003 C.3     1  UNL1        0.1783
     24 O          65.3069   91.9149   13.0287 O.3     1  UNL1       -0.3267
     25 C          66.2046   92.6023   12.0431 C.3     1  UNL1        0.2296
     26 O          65.5261   92.5822   10.7055 O.3     1  UNL1       -0.3255
     27 C          67.1105   92.7736   13.2263 C.ar    1  UNL1        0.0409
     28 C          66.6908   93.6460   14.3721 C.ar    1  UNL1        0.0022
     29 C          67.5967   93.8173   15.5553 C.ar    1  UNL1        0.0113
     30 C          68.9222   93.1162   15.5928 C.ar    1  UNL1        0.0585
     31 CL         69.8281   93.2875   16.7760 Cl      1  UNL1       -0.0822
     32 C          69.3419   92.2438   14.4470 C.ar    1  UNL1        0.0226
     33 C          68.4361   92.0725   13.2638 C.ar    1  UNL1        0.0591
     34 CL         68.8557   91.2002   12.1180 Cl      1  UNL1       -0.0824
     35 C          67.2918   93.3256   11.3047 C.3     1  UNL1        0.1682
     36 N          66.9875   94.6085   10.5895 N.ar    1  UNL1       -0.3025
     37 C          67.3419   94.9310    9.1682 C.ar    1  UNL1        0.0982
     38 C          66.8488   96.3160    8.8704 C.ar    1  UNL1        0.1193
     39 N          66.1896   96.8494   10.1077 N.ar    1  UNL1       -0.2223
     40 C          66.2754   95.7941   11.1702 C.ar    1  UNL1        0.1788
@<TRIPOS>BOND
     1    14    15    2
     2    15    16    2
     3    15     8    1
     4     8     9    1
     5     9    10    1
     6    10    11    1
     7    11     2    1
     8     2     3   ar
     9     3     4   ar
    10     4     5   ar
    11     5     1    1
    12     1    21    1
    13    22    21    1
    14    22    23    1
    15    23    24    1
    16    24    25    1
    17    25    35    1
    18    35    36    1
    19    36    37   ar
    20    37    38   ar
    21    38    39   ar
    22    39    40   ar
    23    25    27    1
    24    27    28   ar
    25    28    29   ar
    26    29    30   ar
    27    30    31    1
    28    30    32   ar
    29    32    33   ar
    30    33    34    1
    31    25    26    1
    32     5     6   ar
    33     6     7   ar
    34    11    12    1
    35    12    13    1
    36    15    17    1
    37    17    18    1
    38    17    19    1
    39    17    20    1
    40    13     8    1
    41     7     2   ar
    42    26    22    1
    43    40    36   ar
    44    33    27   ar
