@<TRIPOS>MOLECULE
*****
 44 48 0 0 0
SMALL
GASTEIGER

@<TRIPOS>ATOM
      1 C          64.4749   86.7129   13.9912 C.3     1  UNL1        0.1245
      2 N          64.0675   87.3259   15.2983 N.am    1  UNL1       -0.2735
      3 C          63.8037   88.7999   15.3855 C.2     1  UNL1        0.2492
      4 O          63.3964   89.4129   16.6925 O.2     1  UNL1       -0.2699
      5 C          63.9473   89.6610   14.1656 C.ar    1  UNL1        0.0567
      6 C          63.1422   89.3602   12.9363 C.ar    1  UNL1        0.0063
      7 C          63.2857   90.2213   11.7165 C.ar    1  UNL1        0.0225
      8 C          64.2344   91.3832   11.7261 C.ar    1  UNL1        0.1202
      9 N          64.5853   92.4011   10.6816 N.ar    1  UNL1       -0.1946
     10 C          65.6073   93.3310   11.2655 C.ar    1  UNL1        0.2924
     11 O          65.8879   92.8878   12.6708 O.2     1  UNL1       -0.4237
     12 C          65.0395   91.6840   12.9555 C.ar    1  UNL1        0.1662
     13 C          64.8959   90.8229   14.1752 C.ar    1  UNL1        0.0437
     14 N          66.2379   94.4990   10.5668 N.pl3   1  UNL1       -0.2636
     15 C          66.1300   95.9368   10.9803 C.3     1  UNL1        0.0951
     16 C          66.9126   96.7606   10.0010 C.3     1  UNL1        0.0233
     17 C          67.5040   95.8319    8.9823 C.3     1  UNL1        0.0233
     18 C          67.0870   94.4341    9.3321 C.3     1  UNL1        0.0951
     19 C          63.9240   86.4648   16.5181 C.3     1  UNL1        0.0937
     20 C          62.6101   86.8844   18.7198 C.3     1  UNL1        0.0018
     21 C          62.6334   86.4562   17.2824 C.3     1  UNL1        0.0199
     22 C          61.3660   86.0194   16.6093 C.3     1  UNL1        0.0018
     23 C          64.1292   85.2841   13.6929 C.3     1  UNL1        0.1484
     24 O          65.1733   84.2158   13.8286 O.3     1  UNL1       -0.3810
     25 H          66.0093   84.6153   14.1156 H       1  UNL1        0.2105
     26 C          62.7394   84.9236   13.2588 C.3     1  UNL1        0.1075
     27 N          62.0583   85.7206   12.1859 N.am    1  UNL1       -0.2695
     28 C          62.4301   85.5137   10.7476 C.2     1  UNL1        0.4020
     29 O          63.4831   84.5098   10.3821 O.2     1  UNL1       -0.2264
     30 H          61.3672   86.3795   12.4259 H       1  UNL1        0.1528
     31 O          61.7491   86.3107    9.6747 O.3     1  UNL1       -0.4291
     32 C          60.3498   86.8086    9.8843 C.3     1  UNL1        0.2447
     33 C          60.1159   88.2168   10.3453 C.ar    1  UNL1        0.0714
     34 C          60.2838   89.4554    9.5160 C.ar    1  UNL1        0.1053
     35 N          59.9448   90.6376   10.3747 N.ar    1  UNL1       -0.2350
     36 C          59.5674   90.1297   11.7347 C.ar    1  UNL1        0.1343
     37 S          59.6731   88.6335   11.7165 S.2     1  UNL1       -0.0652
     38 C          62.0306   83.7662   13.8975 C.3     1  UNL1        0.0485
     39 C          62.2313   82.3780   13.3659 C.ar    1  UNL1       -0.0204
     40 C          62.8189   82.1753   12.0007 C.ar    1  UNL1       -0.0042
     41 C          63.0196   80.7871   11.4692 C.ar    1  UNL1       -0.0003
     42 C          62.6327   79.6016   12.3027 C.ar    1  UNL1       -0.0000
     43 C          62.0452   79.8043   13.6679 C.ar    1  UNL1       -0.0003
     44 C          61.8445   81.1924   14.1995 C.ar    1  UNL1       -0.0042
@<TRIPOS>BOND
     1    20    21    1
     2    21    22    1
     3    21    19    1
     4    19     2    1
     5     2     1    1
     6     1    23    1
     7    23    24    1
     8    23    26    1
     9    26    38    1
    10    38    39    1
    11    39    40   ar
    12    40    41   ar
    13    41    42   ar
    14    42    43   ar
    15    43    44   ar
    16    26    27    1
    17    27    28   am
    18    28    29    2
    19    28    31    1
    20    31    32    1
    21    32    33    1
    22    33    34   ar
    23    34    35   ar
    24    35    36   ar
    25    36    37   ar
    26     2     3   am
    27     3     4    2
    28     3     5    1
    29     5     6   ar
    30     6     7   ar
    31     7     8   ar
    32     8     9   ar
    33     9    10   ar
    34    10    14    1
    35    14    15    1
    36    15    16    1
    37    16    17    1
    38    17    18    1
    39    10    11   ar
    40    11    12   ar
    41    12    13   ar
    42    44    39   ar
    43    37    33   ar
    44    13     5   ar
    45    12     8   ar
    46    18    14    1
    47    24    25    1
    48    27    30    1
@<TRIPOS>MOLECULE
*****
 44 48 0 0 0
SMALL
GASTEIGER

@<TRIPOS>ATOM
      1 C          62.5503   87.6117    9.7429 C.3     1  UNL1        0.1245
      2 N          61.1901   88.2132    9.9379 N.am    1  UNL1       -0.2735
      3 C          61.0559   89.5995   10.4948 C.2     1  UNL1        0.2492
      4 O          59.6957   90.2011   10.6898 O.2     1  UNL1       -0.2699
      5 C          62.2820   90.3843   10.8567 C.ar    1  UNL1        0.0567
      6 C          62.9158   91.2936    9.8461 C.ar    1  UNL1        0.0063
      7 C          64.1418   92.0784   10.2080 C.ar    1  UNL1        0.0225
      8 C          64.7340   91.9538   11.5806 C.ar    1  UNL1        0.1202
      9 N          65.9282   92.5974   12.2206 N.ar    1  UNL1       -0.1946
     10 C          66.0324   92.0858   13.6268 C.ar    1  UNL1        0.2924
     11 O          64.9026   91.1261   13.8558 O.2     1  UNL1       -0.4237
     12 C          64.1001   91.0445   12.5912 C.ar    1  UNL1        0.1662
     13 C          62.8741   90.2598   12.2292 C.ar    1  UNL1        0.0437
     14 N          67.0822   92.4670   14.6283 N.pl3   1  UNL1       -0.2636
     15 C          67.5188   93.8633   14.9598 C.3     1  UNL1        0.0951
     16 C          68.5860   93.7780   16.0104 C.3     1  UNL1        0.0233
     17 C          68.8089   92.3291   16.3282 C.3     1  UNL1        0.0233
     18 C          67.8794   91.5188   15.4739 C.3     1  UNL1        0.0951
     19 C          59.9640   87.4284    9.5760 C.3     1  UNL1        0.0937
     20 C          59.7335   85.9078    7.4820 C.3     1  UNL1        0.0018
     21 C          59.5859   87.2499    8.1354 C.3     1  UNL1        0.0199
     22 C          59.0603   88.4136    7.3482 C.3     1  UNL1        0.0018
     23 C          62.6927   86.1345    9.5244 C.3     1  UNL1        0.1484
     24 O          63.1448   85.6134    8.1925 O.3     1  UNL1       -0.3810
     25 H          63.3010   86.3577    7.5903 H       1  UNL1        0.2105
     26 C          62.3832   85.1784   10.6380 C.3     1  UNL1        0.1075
     27 N          62.3961   83.7002   10.3828 N.am    1  UNL1       -0.2695
     28 C          63.6989   82.9580   10.3396 C.2     1  UNL1        0.4020
     29 O          64.9887   83.6940   10.5518 O.2     1  UNL1       -0.2264
     30 H          61.5496   83.2173   10.2435 H       1  UNL1        0.1528
     31 O          63.7120   81.4800   10.0844 O.3     1  UNL1       -0.4291
     32 C          63.0483   80.5459   11.0524 C.3     1  UNL1        0.2447
     33 C          62.8748   80.9507   12.4863 C.ar    1  UNL1        0.0714
     34 C          63.9690   81.0820   13.5040 C.ar    1  UNL1        0.1053
     35 N          63.3471   81.5077   14.8009 N.ar    1  UNL1       -0.2350
     36 C          61.8686   81.6395   14.5848 C.ar    1  UNL1        0.1343
     37 S          61.5767   81.2952   13.1543 S.2     1  UNL1       -0.0652
     38 C          62.0606   85.7003   12.0067 C.3     1  UNL1        0.0485
     39 C          63.1468   85.8383   13.0319 C.ar    1  UNL1       -0.0204
     40 C          63.5247   87.1958   13.5461 C.ar    1  UNL1       -0.0042
     41 C          64.6110   87.3338   14.5714 C.ar    1  UNL1       -0.0003
     42 C          65.3192   86.1143   15.0824 C.ar    1  UNL1       -0.0000
     43 C          64.9413   84.7568   14.5682 C.ar    1  UNL1       -0.0003
     44 C          63.8551   84.6188   13.5430 C.ar    1  UNL1       -0.0042
@<TRIPOS>BOND
     1    20    21    1
     2    21    22    1
     3    21    19    1
     4    19     2    1
     5     2     1    1
     6     1    23    1
     7    23    24    1
     8    23    26    1
     9    26    38    1
    10    38    39    1
    11    39    40   ar
    12    40    41   ar
    13    41    42   ar
    14    42    43   ar
    15    43    44   ar
    16    26    27    1
    17    27    28   am
    18    28    29    2
    19    28    31    1
    20    31    32    1
    21    32    33    1
    22    33    34   ar
    23    34    35   ar
    24    35    36   ar
    25    36    37   ar
    26     2     3   am
    27     3     4    2
    28     3     5    1
    29     5     6   ar
    30     6     7   ar
    31     7     8   ar
    32     8     9   ar
    33     9    10   ar
    34    10    14    1
    35    14    15    1
    36    15    16    1
    37    16    17    1
    38    17    18    1
    39    10    11   ar
    40    11    12   ar
    41    12    13   ar
    42    44    39   ar
    43    37    33   ar
    44    13     5   ar
    45    12     8   ar
    46    18    14    1
    47    24    25    1
    48    27    30    1
@<TRIPOS>MOLECULE
*****
 44 48 0 0 0
SMALL
GASTEIGER

@<TRIPOS>ATOM
      1 C          62.6175   87.5607   11.1081 C.3     1  UNL1        0.1245
      2 N          61.3833   88.2624   10.6238 N.am    1  UNL1       -0.2735
      3 C          61.3606   89.7591   10.5275 C.2     1  UNL1        0.2492
      4 O          60.1264   90.4608   10.0433 O.2     1  UNL1       -0.2699
      5 C          62.5720   90.5541   10.9155 C.ar    1  UNL1        0.0567
      6 C          63.1998   91.4938    9.9292 C.ar    1  UNL1        0.0063
      7 C          64.4112   92.2888   10.3172 C.ar    1  UNL1        0.0225
      8 C          64.9947   92.1441   11.6914 C.ar    1  UNL1        0.1202
      9 N          66.1743   92.7917   12.3543 N.ar    1  UNL1       -0.1946
     10 C          66.2754   92.2522   13.7502 C.ar    1  UNL1        0.2924
     11 O          65.1584   91.2713   13.9501 O.2     1  UNL1       -0.4237
     12 C          64.3668   91.2045   12.6777 C.ar    1  UNL1        0.1662
     13 C          63.1555   90.4095   12.2898 C.ar    1  UNL1        0.0437
     14 N          67.3117   92.6277   14.7677 N.pl3   1  UNL1       -0.2636
     15 C          67.7502   94.0216   15.1065 C.3     1  UNL1        0.0951
     16 C          68.8009   93.9305   16.1732 C.3     1  UNL1        0.0233
     17 C          69.0118   92.4804   16.4935 C.3     1  UNL1        0.0233
     18 C          68.0913   91.6752   15.6248 C.3     1  UNL1        0.0951
     19 C          60.1719   87.4673   10.2359 C.3     1  UNL1        0.0937
     20 C          61.0267   85.9682    8.2937 C.3     1  UNL1        0.0018
     21 C          60.0309   86.9509    8.8346 C.3     1  UNL1        0.0199
     22 C          58.8940   87.4173    7.9743 C.3     1  UNL1        0.0018
     23 C          62.4961   86.3311   11.9586 C.3     1  UNL1        0.1484
     24 O          61.2453   85.5047   11.9083 O.3     1  UNL1       -0.3810
     25 H          60.6208   85.9013   11.2810 H       1  UNL1        0.2105
     26 C          63.6257   85.9278   12.8595 C.3     1  UNL1        0.1075
     27 N          64.1131   84.5092   12.8622 N.am    1  UNL1       -0.2695
     28 C          64.1026   83.7102   11.5927 C.2     1  UNL1        0.4020
     29 O          63.6046   84.3298   10.3206 O.2     1  UNL1       -0.2264
     30 H          64.4400   84.1026   13.6971 H       1  UNL1        0.1528
     31 O          64.5900   82.2916   11.5953 O.3     1  UNL1       -0.4291
     32 C          64.4547   81.4544   12.8325 C.3     1  UNL1        0.2447
     33 C          63.0935   81.1241   13.3694 C.ar    1  UNL1        0.0714
     34 C          62.2446   82.0141   14.2280 C.ar    1  UNL1        0.1053
     35 N          60.9687   81.2860   14.5313 N.ar    1  UNL1       -0.2350
     36 C          61.0292   79.9458   13.8601 C.ar    1  UNL1        0.1343
     37 S          62.3423   79.8458   13.1420 S.2     1  UNL1       -0.0652
     38 C          64.2677   86.9432   13.7577 C.3     1  UNL1        0.0485
     39 C          63.7748   87.1194   15.1634 C.ar    1  UNL1       -0.0204
     40 C          63.5680   88.4974   15.7185 C.ar    1  UNL1       -0.0042
     41 C          63.0750   88.6736   17.1242 C.ar    1  UNL1       -0.0003
     42 C          62.7889   87.4716   17.9748 C.ar    1  UNL1       -0.0000
     43 C          62.9957   86.0936   17.4197 C.ar    1  UNL1       -0.0003
     44 C          63.4887   85.9174   16.0140 C.ar    1  UNL1       -0.0042
@<TRIPOS>BOND
     1    20    21    1
     2    21    22    1
     3    21    19    1
     4    19     2    1
     5     2     1    1
     6     1    23    1
     7    23    24    1
     8    23    26    1
     9    26    38    1
    10    38    39    1
    11    39    40   ar
    12    40    41   ar
    13    41    42   ar
    14    42    43   ar
    15    43    44   ar
    16    26    27    1
    17    27    28   am
    18    28    29    2
    19    28    31    1
    20    31    32    1
    21    32    33    1
    22    33    34   ar
    23    34    35   ar
    24    35    36   ar
    25    36    37   ar
    26     2     3   am
    27     3     4    2
    28     3     5    1
    29     5     6   ar
    30     6     7   ar
    31     7     8   ar
    32     8     9   ar
    33     9    10   ar
    34    10    14    1
    35    14    15    1
    36    15    16    1
    37    16    17    1
    38    17    18    1
    39    10    11   ar
    40    11    12   ar
    41    12    13   ar
    42    44    39   ar
    43    37    33   ar
    44    13     5   ar
    45    12     8   ar
    46    18    14    1
    47    24    25    1
    48    27    30    1
@<TRIPOS>MOLECULE
*****
 44 48 0 0 0
SMALL
GASTEIGER

@<TRIPOS>ATOM
      1 C          64.2499   88.1236   14.1945 C.3     1  UNL1        0.1245
      2 N          63.6012   88.8393   15.3421 N.am    1  UNL1       -0.2735
      3 C          63.9061   90.2866   15.5921 C.2     1  UNL1        0.2492
      4 O          63.2574   91.0023   16.7397 O.2     1  UNL1       -0.2699
      5 C          64.8598   91.0181   14.6946 C.ar    1  UNL1        0.0567
      6 C          66.3341   90.9666   14.9657 C.ar    1  UNL1        0.0063
      7 C          67.2877   91.6981   14.0682 C.ar    1  UNL1        0.0225
      8 C          66.7669   92.4811   12.8996 C.ar    1  UNL1        0.1202
      9 N          67.4602   93.2969   11.8489 N.ar    1  UNL1       -0.1946
     10 C          66.4143   93.8525   10.9284 C.ar    1  UNL1        0.2924
     11 O          65.0746   93.3802   11.4103 O.2     1  UNL1       -0.4237
     12 C          65.2925   92.5327   12.6285 C.ar    1  UNL1        0.1662
     13 C          64.3390   91.8011   13.5260 C.ar    1  UNL1        0.0437
     14 N          66.6642   94.7270    9.7355 N.pl3   1  UNL1       -0.2636
     15 C          66.0789   96.0883    9.5022 C.3     1  UNL1        0.0951
     16 C          66.5962   96.5962    8.1890 C.3     1  UNL1        0.0233
     17 C          67.5011   95.5489    7.6108 C.3     1  UNL1        0.0233
     18 C          67.5430   94.3936    8.5667 C.3     1  UNL1        0.0951
     19 C          62.6475   88.1078   16.2396 C.3     1  UNL1        0.0937
     20 C          63.8990   85.8324   16.3182 C.3     1  UNL1        0.0018
     21 C          63.1129   86.9071   17.0088 C.3     1  UNL1        0.0199
     22 C          62.7921   86.7811   18.4688 C.3     1  UNL1        0.0018
     23 C          63.5213   87.9813   12.8911 C.3     1  UNL1        0.1484
     24 O          63.3355   89.1747   12.0016 O.3     1  UNL1       -0.3810
     25 H          63.7429   89.9522   12.4144 H       1  UNL1        0.2105
     26 C          62.9787   86.6455   12.4771 C.3     1  UNL1        0.1075
     27 N          61.9914   86.5532   11.3516 N.am    1  UNL1       -0.2695
     28 C          60.8605   87.5346   11.2636 C.2     1  UNL1        0.4020
     29 O          60.7168   88.6084   12.3011 O.2     1  UNL1       -0.2264
     30 H          62.0857   85.8485   10.6706 H       1  UNL1        0.1528
     31 O          59.8732   87.4423   10.1381 O.3     1  UNL1       -0.4291
     32 C          60.3402   87.5702    8.7184 C.3     1  UNL1        0.2447
     33 C          61.0566   86.4292    8.0589 C.ar    1  UNL1        0.0714
     34 C          62.4472   85.9622    8.3722 C.ar    1  UNL1        0.1053
     35 N          62.7583   84.7993    7.4773 N.ar    1  UNL1       -0.2350
     36 C          61.5600   84.5477    6.6108 C.ar    1  UNL1        0.1343
     37 S          60.5083   85.5550    6.9703 S.2     1  UNL1       -0.0652
     38 C          63.4233   85.4022   13.1887 C.3     1  UNL1        0.0485
     39 C          63.3406   84.0730   12.4986 C.ar    1  UNL1       -0.0204
     40 C          62.5799   82.9455   13.1312 C.ar    1  UNL1       -0.0042
     41 C          62.4973   81.6162   12.4410 C.ar    1  UNL1       -0.0003
     42 C          63.1754   81.4145   11.1184 C.ar    1  UNL1       -0.0000
     43 C          63.9361   82.5419   10.4858 C.ar    1  UNL1       -0.0003
     44 C          64.0188   83.8711   11.1759 C.ar    1  UNL1       -0.0042
@<TRIPOS>BOND
     1    20    21    1
     2    21    22    1
     3    21    19    1
     4    19     2    1
     5     2     1    1
     6     1    23    1
     7    23    24    1
     8    23    26    1
     9    26    38    1
    10    38    39    1
    11    39    40   ar
    12    40    41   ar
    13    41    42   ar
    14    42    43   ar
    15    43    44   ar
    16    26    27    1
    17    27    28   am
    18    28    29    2
    19    28    31    1
    20    31    32    1
    21    32    33    1
    22    33    34   ar
    23    34    35   ar
    24    35    36   ar
    25    36    37   ar
    26     2     3   am
    27     3     4    2
    28     3     5    1
    29     5     6   ar
    30     6     7   ar
    31     7     8   ar
    32     8     9   ar
    33     9    10   ar
    34    10    14    1
    35    14    15    1
    36    15    16    1
    37    16    17    1
    38    17    18    1
    39    10    11   ar
    40    11    12   ar
    41    12    13   ar
    42    44    39   ar
    43    37    33   ar
    44    13     5   ar
    45    12     8   ar
    46    18    14    1
    47    24    25    1
    48    27    30    1
@<TRIPOS>MOLECULE
*****
 44 48 0 0 0
SMALL
GASTEIGER

@<TRIPOS>ATOM
      1 C          63.9007   89.5736   12.2993 C.3     1  UNL1        0.1245
      2 N          64.2667   90.5480   13.3794 N.am    1  UNL1       -0.2735
      3 C          64.2411   90.1192   14.8165 C.2     1  UNL1        0.2492
      4 O          64.6070   91.0936   15.8966 O.2     1  UNL1       -0.2699
      5 C          63.8495   88.7159   15.1736 C.ar    1  UNL1        0.0567
      6 C          63.3650   88.4016   16.5580 C.ar    1  UNL1        0.0063
      7 C          62.9735   86.9984   16.9151 C.ar    1  UNL1        0.0225
      8 C          63.0663   85.9094   15.8878 C.ar    1  UNL1        0.1202
      9 N          62.7526   84.4437   15.9476 N.ar    1  UNL1       -0.1946
     10 C          63.0432   83.8522   14.6001 C.ar    1  UNL1        0.2924
     11 O          63.5365   84.9522   13.7076 O.2     1  UNL1       -0.4237
     12 C          63.5508   86.2236   14.5034 C.ar    1  UNL1        0.1662
     13 C          63.9423   87.6268   14.1463 C.ar    1  UNL1        0.0437
     14 N          62.8707   82.4132   14.2131 N.pl3   1  UNL1       -0.2636
     15 C          61.6059   81.6150   14.3275 C.3     1  UNL1        0.0951
     16 C          61.8864   80.2283   13.8288 C.3     1  UNL1        0.0233
     17 C          63.3244   80.1696   13.4064 C.3     1  UNL1        0.0233
     18 C          63.9328   81.5200   13.6440 C.3     1  UNL1        0.0951
     19 C          64.6583   91.9513   13.0223 C.3     1  UNL1        0.0937
     20 C          67.2090   92.0132   13.5118 C.3     1  UNL1        0.0018
     21 C          66.0596   92.2487   12.5774 C.3     1  UNL1        0.0199
     22 C          66.3114   92.7818   11.1980 C.3     1  UNL1        0.0018
     23 C          62.4597   89.3495   11.9481 C.3     1  UNL1        0.1484
     24 O          61.3786   89.8777   12.8438 O.3     1  UNL1       -0.3810
     25 H          61.7794   90.3352   13.5993 H       1  UNL1        0.2105
     26 C          62.0998   88.5973   10.7012 C.3     1  UNL1        0.1075
     27 N          61.4728   89.3184    9.5449 N.am    1  UNL1       -0.2695
     28 C          60.0025   89.6153    9.5545 C.2     1  UNL1        0.4020
     29 O          59.1592   89.1911   10.7203 O.2     1  UNL1       -0.2264
     30 H          62.0262   89.5967    8.7798 H       1  UNL1        0.1528
     31 O          59.3754   90.3363    8.3982 O.3     1  UNL1       -0.4291
     32 C          59.4785   89.7670    7.0143 C.3     1  UNL1        0.2447
     33 C          59.2903   90.6567    5.8214 C.ar    1  UNL1        0.0714
     34 C          57.9807   91.1782    5.3083 C.ar    1  UNL1        0.1053
     35 N          58.2595   92.0249    4.1020 N.ar    1  UNL1       -0.2350
     36 C          59.7414   92.0267    3.8694 C.ar    1  UNL1        0.1343
     37 S          60.3784   91.1811    4.9321 S.2     1  UNL1       -0.0652
     38 C          62.3669   87.1241   10.6107 C.3     1  UNL1        0.0485
     39 C          62.0373   86.3781    9.3518 C.ar    1  UNL1       -0.0204
     40 C          60.6348   86.3872    8.8200 C.ar    1  UNL1       -0.0042
     41 C          60.3051   85.6412    7.5610 C.ar    1  UNL1       -0.0003
     42 C          61.3781   84.8862    6.8339 C.ar    1  UNL1       -0.0000
     43 C          62.7806   84.8772    7.3656 C.ar    1  UNL1       -0.0003
     44 C          63.1102   85.6231    8.6245 C.ar    1  UNL1       -0.0042
@<TRIPOS>BOND
     1    20    21    1
     2    21    22    1
     3    21    19    1
     4    19     2    1
     5     2     1    1
     6     1    23    1
     7    23    24    1
     8    23    26    1
     9    26    38    1
    10    38    39    1
    11    39    40   ar
    12    40    41   ar
    13    41    42   ar
    14    42    43   ar
    15    43    44   ar
    16    26    27    1
    17    27    28   am
    18    28    29    2
    19    28    31    1
    20    31    32    1
    21    32    33    1
    22    33    34   ar
    23    34    35   ar
    24    35    36   ar
    25    36    37   ar
    26     2     3   am
    27     3     4    2
    28     3     5    1
    29     5     6   ar
    30     6     7   ar
    31     7     8   ar
    32     8     9   ar
    33     9    10   ar
    34    10    14    1
    35    14    15    1
    36    15    16    1
    37    16    17    1
    38    17    18    1
    39    10    11   ar
    40    11    12   ar
    41    12    13   ar
    42    44    39   ar
    43    37    33   ar
    44    13     5   ar
    45    12     8   ar
    46    18    14    1
    47    24    25    1
    48    27    30    1
@<TRIPOS>MOLECULE
*****
 44 48 0 0 0
SMALL
GASTEIGER

@<TRIPOS>ATOM
      1 C          64.2741   87.9437   14.3295 C.3     1  UNL1        0.1245
      2 N          63.5384   88.6643   15.4202 N.am    1  UNL1       -0.2735
      3 C          63.7759   90.1282   15.6447 C.2     1  UNL1        0.2492
      4 O          63.0402   90.8488   16.7353 O.2     1  UNL1       -0.2699
      5 C          64.7492   90.8717   14.7785 C.ar    1  UNL1        0.0567
      6 C          66.2139   90.8423   15.1003 C.ar    1  UNL1        0.0063
      7 C          67.1871   91.5857   14.2341 C.ar    1  UNL1        0.0225
      8 C          66.6955   92.3584   13.0462 C.ar    1  UNL1        0.1202
      9 N          67.4127   93.1819   12.0177 N.ar    1  UNL1       -0.1946
     10 C          66.3911   93.7202   11.0603 C.ar    1  UNL1        0.2924
     11 O          65.0426   93.2294   11.4971 O.2     1  UNL1       -0.4237
     12 C          65.2308   92.3878   12.7244 C.ar    1  UNL1        0.1662
     13 C          64.2576   91.6444   13.5905 C.ar    1  UNL1        0.0437
     14 N          66.6692   94.5956    9.8744 N.pl3   1  UNL1       -0.2636
     15 C          67.5353   94.2425    8.7017 C.3     1  UNL1        0.0951
     16 C          67.5313   95.4064    7.7555 C.3     1  UNL1        0.0233
     17 C          66.6628   96.4788    8.3434 C.3     1  UNL1        0.0233
     18 C          66.1299   95.9776    9.6530 C.3     1  UNL1        0.0951
     19 C          62.5651   87.9209   16.2863 C.3     1  UNL1        0.0937
     20 C          62.7097   86.8947   18.6687 C.3     1  UNL1        0.0018
     21 C          63.0533   86.8441   17.2095 C.3     1  UNL1        0.0199
     22 C          63.8851   85.7168   16.6734 C.3     1  UNL1        0.0018
     23 C          63.5680   87.5931   13.0533 C.3     1  UNL1        0.1484
     24 O          63.1809   88.6747   12.0888 O.3     1  UNL1       -0.3810
     25 H          63.4584   89.5353   12.4397 H       1  UNL1        0.2105
     26 C          63.2489   86.1609   12.7418 C.3     1  UNL1        0.1075
     27 N          62.7860   85.7775   11.3675 N.am    1  UNL1       -0.2695
     28 C          61.4779   86.2938   10.8455 C.2     1  UNL1        0.4020
     29 O          60.6328   87.1935   11.6979 O.2     1  UNL1       -0.2264
     30 H          63.3406   85.1870   10.8080 H       1  UNL1        0.1528
     31 O          61.0149   85.9104    9.4712 O.3     1  UNL1       -0.4291
     32 C          59.7231   86.4536    8.9363 C.3     1  UNL1        0.2447
     33 C          59.6996   87.7810    8.2380 C.ar    1  UNL1        0.0714
     34 C          60.3562   89.0414    8.7179 C.ar    1  UNL1        0.1053
     35 N          60.0777   90.1205    7.7138 N.ar    1  UNL1       -0.2350
     36 C          59.2490   89.5269    6.6134 C.ar    1  UNL1        0.1343
     37 S          59.0153   88.0811    6.9374 S.2     1  UNL1       -0.0652
     38 C          63.3928   85.1122   13.8045 C.3     1  UNL1        0.0485
     39 C          63.0301   83.6876   13.5063 C.ar    1  UNL1       -0.0204
     40 C          63.4710   83.0549   12.2197 C.ar    1  UNL1       -0.0042
     41 C          63.1082   81.6303   11.9216 C.ar    1  UNL1       -0.0003
     42 C          62.3045   80.8384   12.9099 C.ar    1  UNL1       -0.0000
     43 C          61.8636   81.4711   14.1965 C.ar    1  UNL1       -0.0003
     44 C          62.2263   82.8957   14.4947 C.ar    1  UNL1       -0.0042
@<TRIPOS>BOND
     1    20    21    1
     2    21    22    1
     3    21    19    1
     4    19     2    1
     5     2     1    1
     6     1    23    1
     7    23    24    1
     8    23    26    1
     9    26    38    1
    10    38    39    1
    11    39    40   ar
    12    40    41   ar
    13    41    42   ar
    14    42    43   ar
    15    43    44   ar
    16    26    27    1
    17    27    28   am
    18    28    29    2
    19    28    31    1
    20    31    32    1
    21    32    33    1
    22    33    34   ar
    23    34    35   ar
    24    35    36   ar
    25    36    37   ar
    26     2     3   am
    27     3     4    2
    28     3     5    1
    29     5     6   ar
    30     6     7   ar
    31     7     8   ar
    32     8     9   ar
    33     9    10   ar
    34    10    14    1
    35    14    15    1
    36    15    16    1
    37    16    17    1
    38    17    18    1
    39    10    11   ar
    40    11    12   ar
    41    12    13   ar
    42    44    39   ar
    43    37    33   ar
    44    13     5   ar
    45    12     8   ar
    46    18    14    1
    47    24    25    1
    48    27    30    1
@<TRIPOS>MOLECULE
*****
 44 48 0 0 0
SMALL
GASTEIGER

@<TRIPOS>ATOM
      1 C          64.2650   87.7293   14.2883 C.3     1  UNL1        0.1245
      2 N          63.4610   88.3690   15.3812 N.am    1  UNL1       -0.2735
      3 C          63.6340   89.8278   15.6840 C.2     1  UNL1        0.2492
      4 O          62.8300   90.4675   16.7769 O.2     1  UNL1       -0.2699
      5 C          64.6111   90.6471   14.8940 C.ar    1  UNL1        0.0567
      6 C          66.0304   90.7781   15.3612 C.ar    1  UNL1        0.0063
      7 C          67.0074   91.5974   14.5711 C.ar    1  UNL1        0.0225
      8 C          66.5651   92.2856   13.3138 C.ar    1  UNL1        0.1202
      9 N          67.2974   93.1539   12.3340 N.ar    1  UNL1       -0.1946
     10 C          66.3306   93.5595   11.2613 C.ar    1  UNL1        0.2924
     11 O          65.0008   92.9419   11.5782 O.2     1  UNL1       -0.4237
     12 C          65.1458   92.1546   12.8467 C.ar    1  UNL1        0.1662
     13 C          64.1688   91.3354   13.6367 C.ar    1  UNL1        0.0437
     14 N          66.6393   94.4299   10.0793 N.pl3   1  UNL1       -0.2636
     15 C          67.5991   94.1063    8.9728 C.3     1  UNL1        0.0951
     16 C          67.5953   95.2531    8.0059 C.3     1  UNL1        0.0233
     17 C          66.6332   96.2853    8.5148 C.3     1  UNL1        0.0233
     18 C          66.0424   95.7765    9.7962 C.3     1  UNL1        0.0951
     19 C          62.4839   87.5497   16.1713 C.3     1  UNL1        0.0937
     20 C          63.5004   85.3528   17.1150 C.3     1  UNL1        0.0018
     21 C          62.9591   86.7340   17.3370 C.3     1  UNL1        0.0199
     22 C          62.8929   87.2995   18.7248 C.3     1  UNL1        0.0018
     23 C          64.7188   86.3062   14.4257 C.3     1  UNL1        0.1484
     24 O          65.9429   85.9836   15.2303 O.3     1  UNL1       -0.3810
     25 H          66.3183   86.8025   15.5902 H       1  UNL1        0.2105
     26 C          63.9484   85.2056   13.7585 C.3     1  UNL1        0.1075
     27 N          62.6579   85.5117   13.0576 N.am    1  UNL1       -0.2695
     28 C          62.5242   85.2535   11.5861 C.2     1  UNL1        0.4020
     29 O          63.6808   84.6893   10.8154 O.2     1  UNL1       -0.2264
     30 H          61.8988   85.8819   13.5635 H       1  UNL1        0.1528
     31 O          61.2338   85.5595   10.8852 O.3     1  UNL1       -0.4291
     32 C          61.2387   86.3791    9.6289 C.3     1  UNL1        0.2447
     33 C          61.3890   85.7076    8.2960 C.ar    1  UNL1        0.0714
     34 C          60.2998   85.4990    7.2860 C.ar    1  UNL1        0.1053
     35 N          60.8925   84.7893    6.1049 N.ar    1  UNL1       -0.2350
     36 C          62.3481   84.5594    6.3849 C.ar    1  UNL1        0.1343
     37 S          62.6549   85.1269    7.7390 S.2     1  UNL1       -0.0652
     38 C          64.4683   83.7990   13.7922 C.3     1  UNL1        0.0485
     39 C          63.5201   82.6454   13.6509 C.ar    1  UNL1       -0.0204
     40 C          63.7482   81.6130   12.5869 C.ar    1  UNL1       -0.0042
     41 C          62.7999   80.4594   12.4456 C.ar    1  UNL1       -0.0003
     42 C          61.6236   80.3381   13.3685 C.ar    1  UNL1       -0.0000
     43 C          61.3955   81.3704   14.4325 C.ar    1  UNL1       -0.0003
     44 C          62.3438   82.5241   14.5738 C.ar    1  UNL1       -0.0042
@<TRIPOS>BOND
     1    20    21    1
     2    21    22    1
     3    21    19    1
     4    19     2    1
     5     2     1    1
     6     1    23    1
     7    23    24    1
     8    23    26    1
     9    26    38    1
    10    38    39    1
    11    39    40   ar
    12    40    41   ar
    13    41    42   ar
    14    42    43   ar
    15    43    44   ar
    16    26    27    1
    17    27    28   am
    18    28    29    2
    19    28    31    1
    20    31    32    1
    21    32    33    1
    22    33    34   ar
    23    34    35   ar
    24    35    36   ar
    25    36    37   ar
    26     2     3   am
    27     3     4    2
    28     3     5    1
    29     5     6   ar
    30     6     7   ar
    31     7     8   ar
    32     8     9   ar
    33     9    10   ar
    34    10    14    1
    35    14    15    1
    36    15    16    1
    37    16    17    1
    38    17    18    1
    39    10    11   ar
    40    11    12   ar
    41    12    13   ar
    42    44    39   ar
    43    37    33   ar
    44    13     5   ar
    45    12     8   ar
    46    18    14    1
    47    24    25    1
    48    27    30    1
@<TRIPOS>MOLECULE
*****
 44 48 0 0 0
SMALL
GASTEIGER

@<TRIPOS>ATOM
      1 C          64.7686   90.4001   13.5532 C.3     1  UNL1        0.1245
      2 N          64.7220   91.2070   14.8169 N.am    1  UNL1       -0.2735
      3 C          64.2432   90.5775   16.0914 C.2     1  UNL1        0.2492
      4 O          64.1966   91.3844   17.3550 O.2     1  UNL1       -0.2699
      5 C          63.8111   89.1411   16.1024 C.ar    1  UNL1        0.0567
      6 C          63.0089   88.6080   17.2523 C.ar    1  UNL1        0.0063
      7 C          62.5769   87.1717   17.2632 C.ar    1  UNL1        0.0225
      8 C          62.9470   86.2684   16.1243 C.ar    1  UNL1        0.1202
      9 N          62.6651   84.8189   15.8603 N.ar    1  UNL1       -0.1946
     10 C          63.2930   84.4563   14.5473 C.ar    1  UNL1        0.2924
     11 O          63.9630   85.6816   13.9998 O.2     1  UNL1       -0.4237
     12 C          63.7492   86.8015   14.9744 C.ar    1  UNL1        0.1662
     13 C          64.1813   88.2379   14.9635 C.ar    1  UNL1        0.0437
     14 N          63.2573   83.1054   13.8960 N.pl3   1  UNL1       -0.2636
     15 C          64.0799   82.6722   12.7188 C.3     1  UNL1        0.0951
     16 C          63.7236   81.2497   12.4029 C.3     1  UNL1        0.0233
     17 C          62.6809   80.8040   13.3848 C.3     1  UNL1        0.0233
     18 C          62.3927   81.9510   14.3076 C.3     1  UNL1        0.0951
     19 C          65.1541   92.6434   14.8059 C.3     1  UNL1        0.0937
     20 C          67.6891   92.1048   14.6226 C.3     1  UNL1        0.0018
     21 C          66.5288   93.0094   14.3304 C.3     1  UNL1        0.0199
     22 C          66.7433   94.2801   13.5626 C.3     1  UNL1        0.0018
     23 C          63.5853   90.3808   12.6315 C.3     1  UNL1        0.1484
     24 O          62.3701   89.5768   12.9879 O.3     1  UNL1       -0.3810
     25 H          62.5135   89.1341   13.8389 H       1  UNL1        0.2105
     26 C          63.6172   91.1655   11.3536 C.3     1  UNL1        0.1075
     27 N          63.0624   90.5698   10.0936 N.am    1  UNL1       -0.2695
     28 C          61.5931   90.2896    9.9802 C.2     1  UNL1        0.4020
     29 O          60.6787   90.6051   11.1267 O.2     1  UNL1       -0.2264
     30 H          63.6625   90.3628    9.3412 H       1  UNL1        0.1528
     31 O          61.0383   89.6939    8.7204 O.3     1  UNL1       -0.4291
     32 C          60.4726   88.3047    8.7334 C.3     1  UNL1        0.2447
     33 C          61.0772   87.2570    9.6204 C.ar    1  UNL1        0.0714
     34 C          60.7605   87.0396   11.0704 C.ar    1  UNL1        0.1053
     35 N          61.5921   85.8910   11.5594 N.ar    1  UNL1       -0.2350
     36 C          62.4228   85.3986   10.4115 C.ar    1  UNL1        0.1343
     37 S          62.1046   86.2428    9.2132 S.2     1  UNL1       -0.0652
     38 C          64.2039   92.5459   11.3355 C.3     1  UNL1        0.0485
     39 C          65.5299   92.7886   10.6779 C.ar    1  UNL1       -0.0204
     40 C          66.6239   91.7693   10.7969 C.ar    1  UNL1       -0.0042
     41 C          67.9501   92.0121   10.1392 C.ar    1  UNL1       -0.0003
     42 C          68.1821   93.2741    9.3625 C.ar    1  UNL1       -0.0000
     43 C          67.0881   94.2934    9.2434 C.ar    1  UNL1       -0.0003
     44 C          65.7621   94.0507    9.9011 C.ar    1  UNL1       -0.0042
@<TRIPOS>BOND
     1    20    21    1
     2    21    22    1
     3    21    19    1
     4    19     2    1
     5     2     1    1
     6     1    23    1
     7    23    24    1
     8    23    26    1
     9    26    38    1
    10    38    39    1
    11    39    40   ar
    12    40    41   ar
    13    41    42   ar
    14    42    43   ar
    15    43    44   ar
    16    26    27    1
    17    27    28   am
    18    28    29    2
    19    28    31    1
    20    31    32    1
    21    32    33    1
    22    33    34   ar
    23    34    35   ar
    24    35    36   ar
    25    36    37   ar
    26     2     3   am
    27     3     4    2
    28     3     5    1
    29     5     6   ar
    30     6     7   ar
    31     7     8   ar
    32     8     9   ar
    33     9    10   ar
    34    10    14    1
    35    14    15    1
    36    15    16    1
    37    16    17    1
    38    17    18    1
    39    10    11   ar
    40    11    12   ar
    41    12    13   ar
    42    44    39   ar
    43    37    33   ar
    44    13     5   ar
    45    12     8   ar
    46    18    14    1
    47    24    25    1
    48    27    30    1
@<TRIPOS>MOLECULE
*****
 44 48 0 0 0
SMALL
GASTEIGER

@<TRIPOS>ATOM
      1 C          63.7033   88.6434   12.7098 C.3     1  UNL1        0.1245
      2 N          63.6713   87.2945   13.3651 N.am    1  UNL1       -0.2735
      3 C          62.9513   86.1566   12.7045 C.2     1  UNL1        0.2492
      4 O          62.9192   84.8077   13.3599 O.2     1  UNL1       -0.2699
      5 C          62.2632   86.3674   11.3883 C.ar    1  UNL1        0.0567
      6 C          61.9908   85.1986   10.4887 C.ar    1  UNL1        0.0063
      7 C          61.3027   85.4095    9.1726 C.ar    1  UNL1        0.0225
      8 C          60.8871   86.7893    8.7562 C.ar    1  UNL1        0.1202
      9 N          60.1968   87.3015    7.5268 N.ar    1  UNL1       -0.1946
     10 C          60.0427   88.7870    7.6668 C.ar    1  UNL1        0.2924
     11 O          60.6376   89.1928    8.9826 O.2     1  UNL1       -0.4237
     12 C          61.1595   87.9582    9.6559 C.ar    1  UNL1        0.1662
     13 C          61.8475   87.7473   10.9719 C.ar    1  UNL1        0.0437
     14 N          59.4054   89.7054    6.6665 N.pl3   1  UNL1       -0.2636
     15 C          57.9323   89.8921    6.4543 C.3     1  UNL1        0.0951
     16 C          57.7460   90.9005    5.3594 C.3     1  UNL1        0.0233
     17 C          59.1039   91.3369    4.8952 C.3     1  UNL1        0.0233
     18 C          60.1295   90.5983    5.7031 C.3     1  UNL1        0.0951
     19 C          64.3594   87.0836   14.6813 C.3     1  UNL1        0.0937
     20 C          63.0988   85.6908   16.4760 C.3     1  UNL1        0.0018
     21 C          63.5553   87.0176   15.9459 C.3     1  UNL1        0.0199
     22 C          63.2078   88.2786   16.6803 C.3     1  UNL1        0.0018
     23 C          63.3571   89.8700   13.5008 C.3     1  UNL1        0.1484
     24 O          61.9960   90.0062   14.1161 O.3     1  UNL1       -0.3810
     25 H          61.4671   89.2200   13.9084 H       1  UNL1        0.2105
     26 C          64.3722   90.9603   13.6765 C.3     1  UNL1        0.1075
     27 N          64.7678   91.8123   12.5070 N.am    1  UNL1       -0.2695
     28 C          63.8726   91.9006   11.3066 C.2     1  UNL1        0.4020
     29 O          62.5819   91.1369   11.2757 O.2     1  UNL1       -0.2264
     30 H          65.6149   92.3135   12.5272 H       1  UNL1        0.1528
     31 O          64.2682   92.7525   10.1371 O.3     1  UNL1       -0.4291
     32 C          65.2863   93.8401   10.3117 C.3     1  UNL1        0.2447
     33 C          66.7250   93.5818    9.9746 C.ar    1  UNL1        0.0714
     34 C          67.7054   94.5939    9.4604 C.ar    1  UNL1        0.1053
     35 N          69.0222   93.9038    9.2604 N.ar    1  UNL1       -0.2350
     36 C          68.8554   92.4651    9.6511 C.ar    1  UNL1        0.1343
     37 S          67.4357   92.2662   10.0924 S.2     1  UNL1       -0.0652
     38 C          64.9916   91.1987   15.0216 C.3     1  UNL1        0.0485
     39 C          66.3577   91.8103   15.1204 C.ar    1  UNL1       -0.0204
     40 C          66.6792   92.7499   16.2446 C.ar    1  UNL1       -0.0042
     41 C          68.0453   93.3615   16.3434 C.ar    1  UNL1       -0.0003
     42 C          69.0899   93.0335   15.3180 C.ar    1  UNL1       -0.0000
     43 C          68.7683   92.0939   14.1939 C.ar    1  UNL1       -0.0003
     44 C          67.4023   91.4823   14.0951 C.ar    1  UNL1       -0.0042
@<TRIPOS>BOND
     1    20    21    1
     2    21    22    1
     3    21    19    1
     4    19     2    1
     5     2     1    1
     6     1    23    1
     7    23    24    1
     8    23    26    1
     9    26    38    1
    10    38    39    1
    11    39    40   ar
    12    40    41   ar
    13    41    42   ar
    14    42    43   ar
    15    43    44   ar
    16    26    27    1
    17    27    28   am
    18    28    29    2
    19    28    31    1
    20    31    32    1
    21    32    33    1
    22    33    34   ar
    23    34    35   ar
    24    35    36   ar
    25    36    37   ar
    26     2     3   am
    27     3     4    2
    28     3     5    1
    29     5     6   ar
    30     6     7   ar
    31     7     8   ar
    32     8     9   ar
    33     9    10   ar
    34    10    14    1
    35    14    15    1
    36    15    16    1
    37    16    17    1
    38    17    18    1
    39    10    11   ar
    40    11    12   ar
    41    12    13   ar
    42    44    39   ar
    43    37    33   ar
    44    13     5   ar
    45    12     8   ar
    46    18    14    1
    47    24    25    1
    48    27    30    1
