@<TRIPOS>MOLECULE
*****
 37 39 0 0 0
SMALL
GASTEIGER

@<TRIPOS>ATOM
      1 C          62.3472   86.5880   10.6813 C.3     1  UNL1        0.1812
      2 O          63.1160   86.4580   11.9627 O.3     1  UNL1       -0.3784
      3 H          63.6566   85.6531   11.9352 H       1  UNL1        0.2106
      4 C          61.5785   86.7180    9.3999 C.3     1  UNL1        0.4197
      5 F          60.8098   86.8480    8.1184 F       1  UNL1       -0.1676
      6 F          60.3427   87.0647   10.1763 F       1  UNL1       -0.1676
      7 F          62.8142   86.3714    8.6234 F       1  UNL1       -0.1676
      8 C          62.9622   85.3138   10.1830 C.3     1  UNL1        0.0398
      9 C          61.6727   84.5252   11.6714 C.3     1  UNL1        0.0045
     10 C          62.9706   84.0937   11.0557 C.3     1  UNL1        0.0216
     11 C          64.2686   83.6623   10.4399 C.3     1  UNL1        0.0045
     12 C          62.9791   82.8737   11.9283 C.ar    1  UNL1       -0.0182
     13 C          62.5431   81.5507   11.3719 C.ar    1  UNL1       -0.0018
     14 C          62.5515   80.3306   12.2445 C.ar    1  UNL1        0.0293
     15 C          62.9959   80.4337   13.6735 C.ar    1  UNL1        0.1403
     16 F          63.0043   79.2137   14.5462 F       1  UNL1       -0.2042
     17 C          63.4319   81.7567   14.2298 C.ar    1  UNL1        0.0338
     18 C          63.4235   82.9767   13.3572 C.ar    1  UNL1        0.0514
     19 C          63.8595   84.2998   13.9136 C.2     1  UNL1        0.2425
     20 N          65.2988   84.7126   13.8260 N.am    1  UNL1       -0.3253
     21 O          62.8560   85.2099   14.5576 O.2     1  UNL1       -0.2704
     22 H          65.9574   84.1152   13.4033 H       1  UNL1        0.1453
     23 H          65.5850   85.5810   14.1911 H       1  UNL1        0.1453
     24 C          61.7323   87.8622   11.1795 C.3     1  UNL1        0.0811
     25 C          62.5999   89.0517   11.4660 C.2     1  UNL1        0.0613
     26 C          63.0469   90.0780   10.4675 C.2     1  UNL1        0.0161
     27 C          63.8961   91.0845   11.1858 C.2     1  UNL1        0.0195
     28 C          64.6086   92.3168   10.7127 C.2     1  UNL1        0.0388
     29 C          65.3989   93.1449   11.6821 C.2     1  UNL1        0.1823
     30 N          65.4767   92.7407   13.1245 N.2     1  UNL1       -0.2468
     31 C          64.7642   91.5084   13.5976 C.3     1  UNL1        0.1722
     32 C          63.9740   90.6803   12.6282 C.2     1  UNL1        0.0833
     33 N          63.1728   89.4240   12.8014 N.2     1  UNL1       -0.2519
     34 S          66.1114   94.3772   11.2091 S.O2    1  UNL1        0.0265
     35 C          66.8239   95.6095   10.7361 C.3     1  UNL1        0.1834
     36 O          66.0927   93.8492    9.8053 O.2     1  UNL1       -0.1671
     37 O          66.1301   94.9053   12.6129 O.2     1  UNL1       -0.1671
@<TRIPOS>BOND
     1     9    10    1
     2    10    11    1
     3    10     8    1
     4     8     1    1
     5     1     2    1
     6     1    24    1
     7    24    25    1
     8    25    26    2
     9    26    27    1
    10    27    28    2
    11    28    29    1
    12    29    34    1
    13    34    35    1
    14    34    36    2
    15    34    37    2
    16    29    30    2
    17    30    31    1
    18    31    32    1
    19    32    33    2
    20     1     4    1
    21     4     5    1
    22     4     6    1
    23     4     7    1
    24    10    12    1
    25    12    13   ar
    26    13    14   ar
    27    14    15   ar
    28    15    16    1
    29    15    17   ar
    30    17    18   ar
    31    18    19    1
    32    19    20   am
    33    19    21    2
    34    33    25    1
    35    18    12   ar
    36    32    27    1
    37     2     3    1
    38    20    22    1
    39    20    23    1
@<TRIPOS>MOLECULE
*****
 37 39 0 0 0
SMALL
GASTEIGER

@<TRIPOS>ATOM
      1 C          63.6136   87.1895   15.9638 C.3     1  UNL1        0.1812
      2 O          64.2866   87.3332   14.6310 O.3     1  UNL1       -0.3784
      3 H          64.7020   86.4916   14.3862 H       1  UNL1        0.2106
      4 C          62.9406   87.0458   17.2966 C.3     1  UNL1        0.4197
      5 F          62.2675   86.9021   18.6294 F       1  UNL1       -0.1676
      6 F          63.8558   85.9068   17.6360 F       1  UNL1       -0.1676
      7 F          62.0253   88.1847   16.9573 F       1  UNL1       -0.1676
      8 C          64.0570   85.7582   16.0334 C.3     1  UNL1        0.0398
      9 C          62.3908   84.7246   15.2238 C.3     1  UNL1        0.0045
     10 C          63.8409   84.8482   14.8607 C.3     1  UNL1        0.0216
     11 C          65.2910   84.9718   14.4976 C.3     1  UNL1        0.0045
     12 C          63.6248   83.9382   13.6880 C.ar    1  UNL1       -0.0182
     13 C          64.0194   82.4937   13.7768 C.ar    1  UNL1       -0.0018
     14 C          63.8033   81.5838   12.6041 C.ar    1  UNL1        0.0293
     15 C          63.1926   82.1183   11.3426 C.ar    1  UNL1        0.1403
     16 F          62.9765   81.2083   10.1699 F       1  UNL1       -0.2042
     17 C          62.7980   83.5627   11.2538 C.ar    1  UNL1        0.0338
     18 C          63.0141   84.4727   12.4265 C.ar    1  UNL1        0.0514
     19 C          62.6195   85.9172   12.3377 C.2     1  UNL1        0.2425
     20 N          61.1974   86.2892   12.0393 N.am    1  UNL1       -0.3253
     21 O          63.6472   86.9896   12.5473 O.2     1  UNL1       -0.2704
     22 H          60.5230   85.5853   11.9017 H       1  UNL1        0.1453
     23 H          60.9384   87.2372   11.9810 H       1  UNL1        0.1453
     24 C          63.1701   88.6207   15.8943 C.3     1  UNL1        0.0811
     25 C          63.5435   89.4649   14.7119 C.2     1  UNL1        0.0613
     26 C          64.7634   90.3302   14.5964 C.2     1  UNL1        0.0161
     27 C          64.7364   90.9921   13.2506 C.2     1  UNL1        0.0195
     28 C          65.6780   91.9513   12.5847 C.2     1  UNL1        0.0388
     29 C          65.3830   92.4543   11.2027 C.2     1  UNL1        0.1823
     30 N          64.1466   91.9982   10.4865 N.2     1  UNL1       -0.2468
     31 C          63.2049   91.0390   11.1523 C.3     1  UNL1        0.1722
     32 C          63.4998   90.5360   12.5343 C.2     1  UNL1        0.0833
     33 N          62.7626   89.5921   13.4375 N.2     1  UNL1       -0.2519
     34 S          66.3246   93.4135   10.5368 S.O2    1  UNL1        0.0265
     35 C          67.2662   94.3727    9.8710 C.3     1  UNL1        0.1834
     36 O          67.2861   92.2913   10.2798 O.2     1  UNL1       -0.1671
     37 O          65.3632   94.5358   10.7939 O.2     1  UNL1       -0.1671
@<TRIPOS>BOND
     1     9    10    1
     2    10    11    1
     3    10     8    1
     4     8     1    1
     5     1     2    1
     6     1    24    1
     7    24    25    1
     8    25    26    2
     9    26    27    1
    10    27    28    2
    11    28    29    1
    12    29    34    1
    13    34    35    1
    14    34    36    2
    15    34    37    2
    16    29    30    2
    17    30    31    1
    18    31    32    1
    19    32    33    2
    20     1     4    1
    21     4     5    1
    22     4     6    1
    23     4     7    1
    24    10    12    1
    25    12    13   ar
    26    13    14   ar
    27    14    15   ar
    28    15    16    1
    29    15    17   ar
    30    17    18   ar
    31    18    19    1
    32    19    20   am
    33    19    21    2
    34    33    25    1
    35    18    12   ar
    36    32    27    1
    37     2     3    1
    38    20    22    1
    39    20    23    1
@<TRIPOS>MOLECULE
*****
 37 39 0 0 0
SMALL
GASTEIGER

@<TRIPOS>ATOM
      1 C          63.4591   87.3421   16.0956 C.3     1  UNL1        0.1812
      2 O          63.8358   87.4299   14.6463 O.3     1  UNL1       -0.3784
      3 H          63.9498   86.5361   14.2872 H       1  UNL1        0.2106
      4 C          63.0825   87.2544   17.5449 C.3     1  UNL1        0.4197
      5 F          62.7059   87.1667   18.9942 F       1  UNL1       -0.1676
      6 F          63.0076   85.7602   17.4350 F       1  UNL1       -0.1676
      7 F          63.1574   88.7484   17.6548 F       1  UNL1       -0.1676
      8 C          63.5131   85.8450   16.0190 C.3     1  UNL1        0.0398
      9 C          61.9858   84.9493   14.8506 C.3     1  UNL1        0.0045
     10 C          63.4617   85.1599   14.6856 C.3     1  UNL1        0.0216
     11 C          64.9377   85.3705   14.5206 C.3     1  UNL1        0.0045
     12 C          63.4104   84.4749   13.3522 C.ar    1  UNL1       -0.0182
     13 C          63.3724   85.2880   12.0922 C.ar    1  UNL1       -0.0018
     14 C          63.3210   84.6029   10.7588 C.ar    1  UNL1        0.0293
     15 C          63.3077   83.1047   10.6853 C.ar    1  UNL1        0.1403
     16 F          63.2563   82.4196    9.3519 F       1  UNL1       -0.2042
     17 C          63.3457   82.2917   11.9452 C.ar    1  UNL1        0.0338
     18 C          63.3971   82.9767   13.2787 C.ar    1  UNL1        0.0514
     19 C          63.4351   82.1636   14.5387 C.2     1  UNL1        0.2425
     20 N          62.3322   81.1920   14.8378 N.am    1  UNL1       -0.3253
     21 O          64.5760   82.3222   15.4994 O.2     1  UNL1       -0.2704
     22 H          61.5833   81.0880   14.2072 H       1  UNL1        0.1453
     23 H          62.3571   80.6584   15.6648 H       1  UNL1        0.1453
     24 C          63.4052   88.8392   16.1722 C.3     1  UNL1        0.0811
     25 C          63.7526   89.6647   14.9690 C.2     1  UNL1        0.0613
     26 C          64.9439   90.5660   14.8322 C.2     1  UNL1        0.0161
     27 C          64.8973   91.1922   13.4700 C.2     1  UNL1        0.0195
     28 C          65.8082   92.1643   12.7805 C.2     1  UNL1        0.0388
     29 C          65.4991   92.6221   11.3859 C.2     1  UNL1        0.1823
     30 N          64.2790   92.1079   10.6808 N.2     1  UNL1       -0.2468
     31 C          63.3682   91.1359   11.3703 C.3     1  UNL1        0.1722
     32 C          63.6773   90.6780   12.7648 C.2     1  UNL1        0.0833
     33 N          62.9698   89.7340   13.6914 N.2     1  UNL1       -0.2519
     34 S          66.4099   93.5942   10.6964 S.O2    1  UNL1        0.0265
     35 C          67.3208   94.5662   10.0069 C.3     1  UNL1        0.1834
     36 O          65.2554   94.5290   10.4890 O.2     1  UNL1       -0.1671
     37 O          67.5645   92.6593   10.9038 O.2     1  UNL1       -0.1671
@<TRIPOS>BOND
     1     9    10    1
     2    10    11    1
     3    10     8    1
     4     8     1    1
     5     1     2    1
     6     1    24    1
     7    24    25    1
     8    25    26    2
     9    26    27    1
    10    27    28    2
    11    28    29    1
    12    29    34    1
    13    34    35    1
    14    34    36    2
    15    34    37    2
    16    29    30    2
    17    30    31    1
    18    31    32    1
    19    32    33    2
    20     1     4    1
    21     4     5    1
    22     4     6    1
    23     4     7    1
    24    10    12    1
    25    12    13   ar
    26    13    14   ar
    27    14    15   ar
    28    15    16    1
    29    15    17   ar
    30    17    18   ar
    31    18    19    1
    32    19    20   am
    33    19    21    2
    34    33    25    1
    35    18    12   ar
    36    32    27    1
    37     2     3    1
    38    20    22    1
    39    20    23    1
@<TRIPOS>MOLECULE
*****
 37 39 0 0 0
SMALL
GASTEIGER

@<TRIPOS>ATOM
      1 C          62.3688   86.6395   10.7332 C.3     1  UNL1        0.1812
      2 O          63.1169   86.4322   12.0167 O.3     1  UNL1       -0.3784
      3 H          63.6247   85.6074   11.9654 H       1  UNL1        0.2106
      4 C          61.6207   86.8468    9.4498 C.3     1  UNL1        0.4197
      5 F          60.8725   87.0540    8.1662 F       1  UNL1       -0.1676
      6 F          60.3938   87.2246   10.2258 F       1  UNL1       -0.1676
      7 F          62.8474   86.4690    8.6737 F       1  UNL1       -0.1676
      8 C          62.9371   85.3598   10.1952 C.3     1  UNL1        0.0398
      9 C          61.6033   84.5262   11.6186 C.3     1  UNL1        0.0045
     10 C          62.9267   84.1207   11.0405 C.3     1  UNL1        0.0216
     11 C          64.2501   83.7152   10.4624 C.3     1  UNL1        0.0045
     12 C          62.9163   82.8816   11.8858 C.ar    1  UNL1       -0.0182
     13 C          62.6578   81.5454   11.2548 C.ar    1  UNL1       -0.0018
     14 C          62.6474   80.3063   12.1001 C.ar    1  UNL1        0.0293
     15 C          62.8954   80.4034   13.5763 C.ar    1  UNL1        0.1403
     16 F          62.8849   79.1642   14.4216 F       1  UNL1       -0.2042
     17 C          63.1538   81.7394   14.2072 C.ar    1  UNL1        0.0338
     18 C          63.1642   82.9785   13.3619 C.ar    1  UNL1        0.0514
     19 C          63.4227   84.3147   13.9929 C.2     1  UNL1        0.2425
     20 N          62.3628   84.9660   14.8309 N.am    1  UNL1       -0.3253
     21 O          64.7411   84.9995   13.7857 O.2     1  UNL1       -0.2704
     22 H          61.4975   84.5165   14.9669 H       1  UNL1        0.1453
     23 H          62.5324   85.8429   15.2450 H       1  UNL1        0.1453
     24 C          61.8004   87.9192   11.2712 C.3     1  UNL1        0.0811
     25 C          62.7180   89.0264   11.6979 C.2     1  UNL1        0.0613
     26 C          63.4541   89.1080   13.0024 C.2     1  UNL1        0.0161
     27 C          64.2516   90.3785   13.0059 C.2     1  UNL1        0.0195
     28 C          65.1678   90.9856   14.0266 C.2     1  UNL1        0.0388
     29 C          65.8409   92.2963   13.7450 C.2     1  UNL1        0.1823
     30 N          65.5976   92.9998   12.4428 N.2     1  UNL1       -0.2468
     31 C          64.6814   92.3926   11.4220 C.3     1  UNL1        0.1722
     32 C          64.0084   91.0820   11.7036 C.2     1  UNL1        0.0833
     33 N          63.0605   90.2463   10.8952 N.2     1  UNL1       -0.2519
     34 S          66.7571   92.9034   14.7658 S.O2    1  UNL1        0.0265
     35 C          67.6734   93.5105   15.7865 C.3     1  UNL1        0.1834
     36 O          67.8398   93.0063   13.7327 O.2     1  UNL1       -0.1671
     37 O          65.6745   92.8005   15.7988 O.2     1  UNL1       -0.1671
@<TRIPOS>BOND
     1     9    10    1
     2    10    11    1
     3    10     8    1
     4     8     1    1
     5     1     2    1
     6     1    24    1
     7    24    25    1
     8    25    26    2
     9    26    27    1
    10    27    28    2
    11    28    29    1
    12    29    34    1
    13    34    35    1
    14    34    36    2
    15    34    37    2
    16    29    30    2
    17    30    31    1
    18    31    32    1
    19    32    33    2
    20     1     4    1
    21     4     5    1
    22     4     6    1
    23     4     7    1
    24    10    12    1
    25    12    13   ar
    26    13    14   ar
    27    14    15   ar
    28    15    16    1
    29    15    17   ar
    30    17    18   ar
    31    18    19    1
    32    19    20   am
    33    19    21    2
    34    33    25    1
    35    18    12   ar
    36    32    27    1
    37     2     3    1
    38    20    22    1
    39    20    23    1
@<TRIPOS>MOLECULE
*****
 37 39 0 0 0
SMALL
GASTEIGER

@<TRIPOS>ATOM
      1 C          61.3651   88.1891    9.1991 C.3     1  UNL1        0.1812
      2 O          62.6727   88.0642    9.9233 O.3     1  UNL1       -0.3784
      3 H          63.0680   87.1997    9.7301 H       1  UNL1        0.2106
      4 C          60.0575   88.3139    8.4750 C.3     1  UNL1        0.4197
      5 F          58.7497   88.4388    7.7508 F       1  UNL1       -0.1676
      6 F          60.4839   87.2390    7.5195 F       1  UNL1       -0.1676
      7 F          59.6310   89.3887    9.4304 F       1  UNL1       -0.1676
      8 C          61.5511   86.8152    8.6262 C.3     1  UNL1        0.0398
      9 C          61.0388   85.6822   10.3449 C.3     1  UNL1        0.0045
     10 C          62.2301   85.7506    9.4359 C.3     1  UNL1        0.0216
     11 C          63.4214   85.8191    8.5269 C.3     1  UNL1        0.0045
     12 C          62.9091   84.6860   10.2456 C.ar    1  UNL1       -0.0182
     13 C          63.3951   83.4328    9.5797 C.ar    1  UNL1       -0.0018
     14 C          64.0741   82.3682   10.3894 C.ar    1  UNL1        0.0293
     15 C          64.2670   82.5568   11.8650 C.ar    1  UNL1        0.1403
     16 F          64.9460   81.4922   12.6746 F       1  UNL1       -0.2042
     17 C          63.7810   83.8100   12.5308 C.ar    1  UNL1        0.0338
     18 C          63.1020   84.8746   11.7211 C.ar    1  UNL1        0.0514
     19 C          62.6160   86.1278   12.3870 C.2     1  UNL1        0.2425
     20 N          63.5649   86.9663   13.1909 N.am    1  UNL1       -0.3253
     21 O          61.1811   86.5423   12.2489 O.2     1  UNL1       -0.2704
     22 H          64.5068   86.6943   13.2815 H       1  UNL1        0.1453
     23 H          63.2460   87.7888   13.6279 H       1  UNL1        0.1453
     24 C          61.1790   89.5628    9.7720 C.3     1  UNL1        0.0811
     25 C          62.0688   90.0395   10.8815 C.2     1  UNL1        0.0613
     26 C          63.2340   90.9733   10.7379 C.2     1  UNL1        0.0161
     27 C          63.8349   91.1771   12.0970 C.2     1  UNL1        0.0195
     28 C          65.0024   91.9939   12.5661 C.2     1  UNL1        0.0388
     29 C          65.3761   92.0028   14.0188 C.2     1  UNL1        0.1823
     30 N          64.5824   91.1950   15.0024 N.2     1  UNL1       -0.2468
     31 C          63.4150   90.3782   14.5333 C.3     1  UNL1        0.1722
     32 C          63.0413   90.3692   13.0807 C.2     1  UNL1        0.0833
     33 N          61.9497   89.6662   12.3294 N.2     1  UNL1       -0.2519
     34 S          66.5435   92.8196   14.4879 S.O2    1  UNL1        0.0265
     35 C          67.7109   93.6363   14.9569 C.3     1  UNL1        0.1834
     36 O          66.0697   92.6832   15.9045 O.2     1  UNL1       -0.1671
     37 O          67.0173   92.9559   13.0712 O.2     1  UNL1       -0.1671
@<TRIPOS>BOND
     1     9    10    1
     2    10    11    1
     3    10     8    1
     4     8     1    1
     5     1     2    1
     6     1    24    1
     7    24    25    1
     8    25    26    2
     9    26    27    1
    10    27    28    2
    11    28    29    1
    12    29    34    1
    13    34    35    1
    14    34    36    2
    15    34    37    2
    16    29    30    2
    17    30    31    1
    18    31    32    1
    19    32    33    2
    20     1     4    1
    21     4     5    1
    22     4     6    1
    23     4     7    1
    24    10    12    1
    25    12    13   ar
    26    13    14   ar
    27    14    15   ar
    28    15    16    1
    29    15    17   ar
    30    17    18   ar
    31    18    19    1
    32    19    20   am
    33    19    21    2
    34    33    25    1
    35    18    12   ar
    36    32    27    1
    37     2     3    1
    38    20    22    1
    39    20    23    1
@<TRIPOS>MOLECULE
*****
 37 39 0 0 0
SMALL
GASTEIGER

@<TRIPOS>ATOM
      1 C          65.7480   92.0617   13.9035 C.3     1  UNL1        0.1812
      2 O          64.7972   92.0684   12.7434 O.3     1  UNL1       -0.3784
      3 H          65.2839   92.2645   11.9276 H       1  UNL1        0.2106
      4 C          66.6989   92.0549   15.0636 C.3     1  UNL1        0.4197
      5 F          67.6497   92.0483   16.2237 F       1  UNL1       -0.1676
      6 F          67.4755   90.9442   14.4207 F       1  UNL1       -0.1676
      7 F          65.9223   93.1656   15.7065 F       1  UNL1       -0.1676
      8 C          66.8825   92.3810   12.9755 C.3     1  UNL1        0.0398
      9 C          66.7840   94.4792   12.6793 C.3     1  UNL1        0.0045
     10 C          66.6553   93.2758   11.7933 C.3     1  UNL1        0.0216
     11 C          66.5265   92.0723   10.9072 C.3     1  UNL1        0.0045
     12 C          66.4280   94.1705   10.6110 C.ar    1  UNL1       -0.0182
     13 C          65.3420   95.2045   10.6507 C.ar    1  UNL1       -0.0018
     14 C          65.1147   96.0992    9.4684 C.ar    1  UNL1        0.0293
     15 C          65.9735   95.9600    8.2464 C.ar    1  UNL1        0.1403
     16 F          65.7462   96.8547    7.0641 F       1  UNL1       -0.2042
     17 C          67.0594   94.9260    8.2067 C.ar    1  UNL1        0.0338
     18 C          67.2867   94.0313    9.3890 C.ar    1  UNL1        0.0514
     19 C          68.3727   92.9973    9.3493 C.2     1  UNL1        0.2425
     20 N          69.3622   92.9053   10.4728 N.am    1  UNL1       -0.3253
     21 O          68.4691   92.0552    8.1860 O.2     1  UNL1       -0.2704
     22 H          69.2989   93.5236   11.2363 H       1  UNL1        0.1453
     23 H          70.0750   92.2267   10.4467 H       1  UNL1        0.1453
     24 C          64.6136   91.7423   14.8314 C.3     1  UNL1        0.0811
     25 C          64.2627   90.3134   15.1229 C.2     1  UNL1        0.0613
     26 C          64.5781   89.1329   14.2528 C.2     1  UNL1        0.0161
     27 C          64.0451   87.9039   14.9278 C.2     1  UNL1        0.0195
     28 C          64.0635   86.4560   14.5366 C.2     1  UNL1        0.0388
     29 C          63.4372   85.4289   15.4327 C.2     1  UNL1        0.1823
     30 N          62.7924   85.8499   16.7200 N.2     1  UNL1       -0.2468
     31 C          62.7740   87.2978   17.1112 C.3     1  UNL1        0.1722
     32 C          63.4003   88.3249   16.2151 C.2     1  UNL1        0.0833
     33 N          63.5348   89.8140   16.3357 N.2     1  UNL1       -0.2519
     34 S          63.4557   83.9810   15.0415 S.O2    1  UNL1        0.0265
     35 C          63.4742   82.5330   14.6503 C.3     1  UNL1        0.1834
     36 O          61.9765   83.8985   15.2768 O.2     1  UNL1       -0.1671
     37 O          64.9348   84.0634   14.8063 O.2     1  UNL1       -0.1671
@<TRIPOS>BOND
     1     9    10    1
     2    10    11    1
     3    10     8    1
     4     8     1    1
     5     1     2    1
     6     1    24    1
     7    24    25    1
     8    25    26    2
     9    26    27    1
    10    27    28    2
    11    28    29    1
    12    29    34    1
    13    34    35    1
    14    34    36    2
    15    34    37    2
    16    29    30    2
    17    30    31    1
    18    31    32    1
    19    32    33    2
    20     1     4    1
    21     4     5    1
    22     4     6    1
    23     4     7    1
    24    10    12    1
    25    12    13   ar
    26    13    14   ar
    27    14    15   ar
    28    15    16    1
    29    15    17   ar
    30    17    18   ar
    31    18    19    1
    32    19    20   am
    33    19    21    2
    34    33    25    1
    35    18    12   ar
    36    32    27    1
    37     2     3    1
    38    20    22    1
    39    20    23    1
@<TRIPOS>MOLECULE
*****
 37 39 0 0 0
SMALL
GASTEIGER

@<TRIPOS>ATOM
      1 C          64.0704   91.2659   13.0956 C.3     1  UNL1        0.1812
      2 O          63.7606   91.9895   11.8187 O.3     1  UNL1       -0.3784
      3 H          64.5395   92.4935   11.5355 H       1  UNL1        0.2106
      4 C          64.3801   90.5423   14.3724 C.3     1  UNL1        0.4197
      5 F          64.6899   89.8186   15.6493 F       1  UNL1       -0.1676
      6 F          64.0282   91.7726   15.1551 F       1  UNL1       -0.1676
      7 F          64.7320   89.3120   13.5898 F       1  UNL1       -0.1676
      8 C          65.4575   91.8367   13.0826 C.3     1  UNL1        0.0398
      9 C          66.3429   93.7642   13.1074 C.3     1  UNL1        0.0045
     10 C          65.8464   92.8388   12.0364 C.3     1  UNL1        0.0216
     11 C          65.3499   91.9134   10.9654 C.3     1  UNL1        0.0045
     12 C          66.2352   93.8410   10.9902 C.ar    1  UNL1       -0.0182
     13 C          65.4670   95.1225   10.8569 C.ar    1  UNL1       -0.0018
     14 C          65.8558   96.1246    9.8107 C.ar    1  UNL1        0.0293
     15 C          67.0129   95.8453    8.8979 C.ar    1  UNL1        0.1403
     16 F          67.4018   96.8475    7.8517 F       1  UNL1       -0.2042
     17 C          67.7811   94.5639    9.0312 C.ar    1  UNL1        0.0338
     18 C          67.3922   93.5617   10.0774 C.ar    1  UNL1        0.0514
     19 C          68.1605   92.2803   10.2107 C.2     1  UNL1        0.2425
     20 N          68.3293   91.3800    9.0229 N.am    1  UNL1       -0.3253
     21 O          68.7599   91.8991   11.5319 O.2     1  UNL1       -0.2704
     22 H          67.9359   91.6301    8.1558 H       1  UNL1        0.1453
     23 H          68.8335   90.5389    9.1105 H       1  UNL1        0.1453
     24 C          62.6833   90.6951   13.1086 C.3     1  UNL1        0.0811
     25 C          62.1907   89.8947   11.9396 C.2     1  UNL1        0.0613
     26 C          62.7145   88.5587   11.5023 C.2     1  UNL1        0.0161
     27 C          61.9353   88.1280   10.2951 C.2     1  UNL1        0.0195
     28 C          62.0114   86.8999    9.4371 C.2     1  UNL1        0.0388
     29 C          61.0821   86.7415    8.2702 C.2     1  UNL1        0.1823
     30 N          60.0769   87.8111    7.9614 N.2     1  UNL1       -0.2468
     31 C          60.0008   89.0392    8.8194 C.3     1  UNL1        0.1722
     32 C          60.9300   89.1976    9.9862 C.2     1  UNL1        0.0833
     33 N          61.0879   90.2895   11.0026 N.2     1  UNL1       -0.2519
     34 S          61.1581   85.5135    7.4123 S.O2    1  UNL1        0.0265
     35 C          61.2342   84.2854    6.5543 C.3     1  UNL1        0.1834
     36 O          62.6100   85.3621    7.7576 O.2     1  UNL1       -0.1671
     37 O          59.7063   85.6648    7.0669 O.2     1  UNL1       -0.1671
@<TRIPOS>BOND
     1     9    10    1
     2    10    11    1
     3    10     8    1
     4     8     1    1
     5     1     2    1
     6     1    24    1
     7    24    25    1
     8    25    26    2
     9    26    27    1
    10    27    28    2
    11    28    29    1
    12    29    34    1
    13    34    35    1
    14    34    36    2
    15    34    37    2
    16    29    30    2
    17    30    31    1
    18    31    32    1
    19    32    33    2
    20     1     4    1
    21     4     5    1
    22     4     6    1
    23     4     7    1
    24    10    12    1
    25    12    13   ar
    26    13    14   ar
    27    14    15   ar
    28    15    16    1
    29    15    17   ar
    30    17    18   ar
    31    18    19    1
    32    19    20   am
    33    19    21    2
    34    33    25    1
    35    18    12   ar
    36    32    27    1
    37     2     3    1
    38    20    22    1
    39    20    23    1
@<TRIPOS>MOLECULE
*****
 37 39 0 0 0
SMALL
GASTEIGER

@<TRIPOS>ATOM
      1 C          62.0889   89.2740   10.7958 C.3     1  UNL1        0.1812
      2 O          63.3052   88.8569   11.5681 O.3     1  UNL1       -0.3784
      3 H          63.5916   89.5867   12.1392 H       1  UNL1        0.2106
      4 C          60.8726   89.6911   10.0235 C.3     1  UNL1        0.4197
      5 F          59.6562   90.1083    9.2512 F       1  UNL1       -0.1676
      6 F          61.2552   88.7553    8.9153 F       1  UNL1       -0.1676
      7 F          60.4900   90.6269   11.1315 F       1  UNL1       -0.1676
      8 C          62.1286   90.6186   11.4595 C.3     1  UNL1        0.0398
      9 C          64.0284   91.2964   10.8029 C.3     1  UNL1        0.0045
     10 C          63.3824   91.0826   12.1396 C.3     1  UNL1        0.0216
     11 C          62.7364   90.8688   13.4764 C.3     1  UNL1        0.0045
     12 C          64.6363   91.5465   12.8198 C.ar    1  UNL1       -0.0182
     13 C          65.4557   92.6466   12.2128 C.ar    1  UNL1       -0.0018
     14 C          66.7096   93.1106   12.8930 C.ar    1  UNL1        0.0293
     15 C          67.1440   92.4744   14.1801 C.ar    1  UNL1        0.1403
     16 F          68.3978   92.9384   14.8603 F       1  UNL1       -0.2042
     17 C          66.3245   91.3744   14.7870 C.ar    1  UNL1        0.0338
     18 C          65.0707   90.9104   14.1069 C.ar    1  UNL1        0.0514
     19 C          64.2512   89.8103   14.7138 C.2     1  UNL1        0.2425
     20 N          64.3170   88.4243   14.1441 N.am    1  UNL1       -0.3253
     21 O          63.3660   90.0963   15.8905 O.2     1  UNL1       -0.2704
     22 H          64.8980   88.2366   13.3718 H       1  UNL1        0.1453
     23 H          63.7792   87.7023   14.5425 H       1  UNL1        0.1453
     24 C          62.0492   87.9294   10.1321 C.3     1  UNL1        0.0811
     25 C          62.2778   86.6869   10.9407 C.2     1  UNL1        0.0613
     26 C          62.0560   85.2784   10.4747 C.2     1  UNL1        0.0161
     27 C          62.4094   84.3557   11.6032 C.2     1  UNL1        0.0195
     28 C          62.3873   82.8605   11.7217 C.2     1  UNL1        0.0388
     29 C          62.8053   82.2035   13.0038 C.2     1  UNL1        0.1823
     30 N          63.2454   83.0417   14.1673 N.2     1  UNL1       -0.2468
     31 C          63.2675   84.5368   14.0488 C.3     1  UNL1        0.1722
     32 C          62.8496   85.1938   12.7668 C.2     1  UNL1        0.0833
     33 N          62.7682   86.6346   12.3573 N.2     1  UNL1       -0.2519
     34 S          62.7832   80.7084   13.1223 S.O2    1  UNL1        0.0265
     35 C          62.7610   79.2132   13.2408 C.3     1  UNL1        0.1834
     36 O          62.7911   80.8268   14.6176 O.2     1  UNL1       -0.1671
     37 O          62.7753   80.5900   11.6270 O.2     1  UNL1       -0.1671
@<TRIPOS>BOND
     1     9    10    1
     2    10    11    1
     3    10     8    1
     4     8     1    1
     5     1     2    1
     6     1    24    1
     7    24    25    1
     8    25    26    2
     9    26    27    1
    10    27    28    2
    11    28    29    1
    12    29    34    1
    13    34    35    1
    14    34    36    2
    15    34    37    2
    16    29    30    2
    17    30    31    1
    18    31    32    1
    19    32    33    2
    20     1     4    1
    21     4     5    1
    22     4     6    1
    23     4     7    1
    24    10    12    1
    25    12    13   ar
    26    13    14   ar
    27    14    15   ar
    28    15    16    1
    29    15    17   ar
    30    17    18   ar
    31    18    19    1
    32    19    20   am
    33    19    21    2
    34    33    25    1
    35    18    12   ar
    36    32    27    1
    37     2     3    1
    38    20    22    1
    39    20    23    1
@<TRIPOS>MOLECULE
*****
 37 39 0 0 0
SMALL
GASTEIGER

@<TRIPOS>ATOM
      1 C          61.5054   88.8768   10.1932 C.3     1  UNL1        0.1812
      2 O          62.6165   88.3062   11.0237 O.3     1  UNL1       -0.3784
      3 H          62.8293   88.9196   11.7444 H       1  UNL1        0.2106
      4 C          60.3943   89.4475    9.3627 C.3     1  UNL1        0.4197
      5 F          59.2832   90.0181    8.5320 F       1  UNL1       -0.1676
      6 F          60.0123   90.3531   10.4958 F       1  UNL1       -0.1676
      7 F          60.7762   88.5419    8.2295 F       1  UNL1       -0.1676
      8 C          61.4616   90.0847   11.0816 C.3     1  UNL1        0.0398
      9 C          62.1026   90.4963   13.0614 C.3     1  UNL1        0.0045
     10 C          62.7243   90.6065   11.7007 C.3     1  UNL1        0.0216
     11 C          63.3459   90.7167   10.3401 C.3     1  UNL1        0.0045
     12 C          63.9870   91.1283   12.3199 C.ar    1  UNL1       -0.0182
     13 C          64.6740   92.3234   11.7284 C.ar    1  UNL1       -0.0018
     14 C          65.9367   92.8452   12.3476 C.ar    1  UNL1        0.0293
     15 C          66.5123   92.1719   13.5581 C.ar    1  UNL1        0.1403
     16 F          67.7750   92.6937   14.1773 F       1  UNL1       -0.2042
     17 C          65.8253   90.9769   14.1495 C.ar    1  UNL1        0.0338
     18 C          64.5626   90.4551   13.5304 C.ar    1  UNL1        0.0514
     19 C          63.8755   89.2600   14.1218 C.2     1  UNL1        0.2425
     20 N          63.1903   89.3706   15.4515 N.am    1  UNL1       -0.3253
     21 O          63.8737   87.9543   13.3835 O.2     1  UNL1       -0.2704
     22 H          63.1914   90.2276   15.9361 H       1  UNL1        0.1453
     23 H          62.7393   88.5862   15.8397 H       1  UNL1        0.1453
     24 C          61.5492   87.6691    9.3048 C.3     1  UNL1        0.0811
     25 C          62.0652   86.3650    9.8369 C.2     1  UNL1        0.0613
     26 C          61.6206   85.6906   11.1009 C.2     1  UNL1        0.0161
     27 C          62.3970   84.4152   11.2436 C.2     1  UNL1        0.0195
     28 C          62.3817   83.3428   12.2924 C.2     1  UNL1        0.0388
     29 C          63.2908   82.1564   12.1652 C.2     1  UNL1        0.1823
     30 N          64.2152   82.0425   10.9895 N.2     1  UNL1       -0.2468
     31 C          64.2305   83.1149    9.9408 C.3     1  UNL1        0.1722
     32 C          63.3215   84.3012   10.0678 C.2     1  UNL1        0.0833
     33 N          63.1163   85.5063    9.1984 N.2     1  UNL1       -0.2519
     34 S          63.2754   81.0841   13.2139 S.O2    1  UNL1        0.0265
     35 C          63.2601   80.0117   14.2627 C.3     1  UNL1        0.1834
     36 O          62.7406   80.1082   12.2082 O.2     1  UNL1       -0.1671
     37 O          63.8103   82.0600   14.2197 O.2     1  UNL1       -0.1671
@<TRIPOS>BOND
     1     9    10    1
     2    10    11    1
     3    10     8    1
     4     8     1    1
     5     1     2    1
     6     1    24    1
     7    24    25    1
     8    25    26    2
     9    26    27    1
    10    27    28    2
    11    28    29    1
    12    29    34    1
    13    34    35    1
    14    34    36    2
    15    34    37    2
    16    29    30    2
    17    30    31    1
    18    31    32    1
    19    32    33    2
    20     1     4    1
    21     4     5    1
    22     4     6    1
    23     4     7    1
    24    10    12    1
    25    12    13   ar
    26    13    14   ar
    27    14    15   ar
    28    15    16    1
    29    15    17   ar
    30    17    18   ar
    31    18    19    1
    32    19    20   am
    33    19    21    2
    34    33    25    1
    35    18    12   ar
    36    32    27    1
    37     2     3    1
    38    20    22    1
    39    20    23    1
