@<TRIPOS>MOLECULE
*****
 35 38 0 0 0
SMALL
GASTEIGER

@<TRIPOS>ATOM
      1 C          61.8908   89.4137   11.1349 C.2     1  UNL1        0.2511
      2 O          60.6511   89.9652   10.4954 O.2     1  UNL1       -0.2698
      3 N          62.0699   87.9303   11.2676 N.am    1  UNL1       -0.2678
      4 N          63.1072   89.7097   16.9243 N.pl3   1  UNL1       -0.3375
      5 C          63.3729   90.1701   15.5217 C.ar    1  UNL1        0.1568
      6 N          62.6711   89.6869   14.2872 N.ar    1  UNL1       -0.2242
      7 C          63.2515   90.4127   13.1098 C.ar    1  UNL1        0.0967
      8 C          62.9514   90.3455   11.6417 C.ar    1  UNL1        0.0750
      9 C          63.7118   91.2102   10.6803 C.ar    1  UNL1        0.0458
     10 C          64.7724   92.1420   11.1871 C.ar    1  UNL1        0.1682
     11 O          65.5328   93.0067   10.2259 O.3     1  UNL1       -0.5029
     12 C          65.0725   92.2092   12.6553 C.ar    1  UNL1        0.1751
     13 O          66.1331   93.1410   13.1621 O.3     1  UNL1       -0.5025
     14 C          64.3121   91.3446   13.6166 C.ar    1  UNL1        0.0865
     15 S          64.3871   91.1946   15.1072 S.2     1  UNL1       -0.0488
     16 H          62.4171   89.0289   17.0965 H       1  UNL1        0.1442
     17 H          63.6228   90.0883   17.6727 H       1  UNL1        0.1442
     18 H          65.3453   92.9647    9.3088 H       1  UNL1        0.2923
     19 H          66.6081   93.6811   12.5616 H       1  UNL1        0.2923
     20 C          61.0093   86.9985   10.7608 C.3     1  UNL1        0.1208
     21 C          61.1613   86.3490    9.4172 C.ar    1  UNL1       -0.0023
     22 C          62.4791   85.7555    9.0158 C.ar    1  UNL1       -0.0026
     23 C          62.6310   85.1061    7.6723 C.ar    1  UNL1       -0.0003
     24 C          61.4652   85.0501    6.7301 C.ar    1  UNL1       -0.0000
     25 C          60.1474   85.6436    7.1315 C.ar    1  UNL1       -0.0003
     26 C          59.9954   86.2931    8.4751 C.ar    1  UNL1       -0.0026
     27 C          63.3096   87.3788   11.9072 C.3     1  UNL1        0.1208
     28 C          63.2537   86.0790   12.6537 C.ar    1  UNL1       -0.0014
     29 C          63.5853   86.0391   14.1160 C.ar    1  UNL1       -0.0017
     30 C          63.5293   84.7392   14.8626 C.ar    1  UNL1        0.0120
     31 C          63.1418   83.4793   14.1467 C.ar    1  UNL1        0.0682
     32 CL         63.0858   82.1794   14.8933 Cl      1  UNL1       -0.0814
     33 C          62.8102   83.5192   12.6844 C.ar    1  UNL1        0.0679
     34 CL         62.4227   82.2593   11.9686 Cl      1  UNL1       -0.0814
     35 C          62.8661   84.8190   11.9379 C.ar    1  UNL1        0.0096
@<TRIPOS>BOND
     1     4     5    1
     2     5     6   ar
     3     6     7   ar
     4     7     8   ar
     5     8     1    1
     6     1     2    2
     7     1     3   am
     8     3    20    1
     9    20    21    1
    10    21    22   ar
    11    22    23   ar
    12    23    24   ar
    13    24    25   ar
    14    25    26   ar
    15     3    27    1
    16    27    28    1
    17    28    29   ar
    18    29    30   ar
    19    30    31   ar
    20    31    32    1
    21    31    33   ar
    22    33    34    1
    23    33    35   ar
    24     8     9   ar
    25     9    10   ar
    26    10    11    1
    27    10    12   ar
    28    12    13    1
    29    12    14   ar
    30    14    15   ar
    31    15     5   ar
    32    14     7   ar
    33    26    21   ar
    34    35    28   ar
    35     4    16    1
    36     4    17    1
    37    11    18    1
    38    13    19    1
@<TRIPOS>MOLECULE
*****
 35 38 0 0 0
SMALL
GASTEIGER

@<TRIPOS>ATOM
      1 C          63.8829   91.0776   13.2491 C.2     1  UNL1        0.2511
      2 O          63.4956   91.1974   14.6933 O.2     1  UNL1       -0.2698
      3 N          64.9017   92.0115   12.6659 N.am    1  UNL1       -0.2678
      4 N          64.4065   85.3466   14.6515 N.pl3   1  UNL1       -0.3375
      5 C          63.8818   86.4110   13.7339 C.ar    1  UNL1        0.1568
      6 N          64.0842   87.8889   13.8910 N.ar    1  UNL1       -0.2242
      7 C          63.3901   88.5756   12.7523 C.ar    1  UNL1        0.0967
      8 C          63.2515   90.0240   12.3882 C.ar    1  UNL1        0.0750
      9 C          62.4814   90.4190   11.1630 C.ar    1  UNL1        0.0458
     10 C          61.8500   89.3654   10.3020 C.ar    1  UNL1        0.1682
     11 O          61.0799   89.7603    9.0768 O.3     1  UNL1       -0.5029
     12 C          61.9886   87.9169   10.6662 C.ar    1  UNL1        0.1751
     13 O          61.3572   86.8633    9.8052 O.3     1  UNL1       -0.5025
     14 C          62.7587   87.5220   11.8913 C.ar    1  UNL1        0.0865
     15 S          63.0626   86.1842   12.4980 S.2     1  UNL1       -0.0488
     16 H          64.9375   85.5962   15.4420 H       1  UNL1        0.1442
     17 H          64.2197   84.3985   14.4632 H       1  UNL1        0.1442
     18 H          60.9933   90.6651    8.8493 H       1  UNL1        0.2923
     19 H          60.8762   87.1100    9.0399 H       1  UNL1        0.2923
     20 C          65.5331   93.0650   13.5269 C.3     1  UNL1        0.1208
     21 C          66.7926   92.7605   14.2825 C.ar    1  UNL1       -0.0023
     22 C          66.8544   92.9946   15.7628 C.ar    1  UNL1       -0.0026
     23 C          68.1138   92.6901   16.5184 C.ar    1  UNL1       -0.0003
     24 C          69.3116   92.1514   15.7937 C.ar    1  UNL1       -0.0000
     25 C          69.2499   91.9173   14.3134 C.ar    1  UNL1       -0.0003
     26 C          67.9904   92.2218   13.5578 C.ar    1  UNL1       -0.0026
     27 C          65.2890   91.8917   11.2217 C.3     1  UNL1        0.1208
     28 C          65.9439   93.0460   10.5227 C.ar    1  UNL1       -0.0014
     29 C          67.2941   92.8730    9.8926 C.ar    1  UNL1       -0.0017
     30 C          67.9490   94.0274    9.1936 C.ar    1  UNL1        0.0120
     31 C          67.2537   95.3547    9.1247 C.ar    1  UNL1        0.0682
     32 CL         67.9085   96.5091    8.4256 Cl      1  UNL1       -0.0814
     33 C          65.9035   95.5277    9.7548 C.ar    1  UNL1        0.0679
     34 CL         65.2082   96.8551    9.6859 Cl      1  UNL1       -0.0814
     35 C          65.2486   94.3734   10.4538 C.ar    1  UNL1        0.0096
@<TRIPOS>BOND
     1     4     5    1
     2     5     6   ar
     3     6     7   ar
     4     7     8   ar
     5     8     1    1
     6     1     2    2
     7     1     3   am
     8     3    20    1
     9    20    21    1
    10    21    22   ar
    11    22    23   ar
    12    23    24   ar
    13    24    25   ar
    14    25    26   ar
    15     3    27    1
    16    27    28    1
    17    28    29   ar
    18    29    30   ar
    19    30    31   ar
    20    31    32    1
    21    31    33   ar
    22    33    34    1
    23    33    35   ar
    24     8     9   ar
    25     9    10   ar
    26    10    11    1
    27    10    12   ar
    28    12    13    1
    29    12    14   ar
    30    14    15   ar
    31    15     5   ar
    32    14     7   ar
    33    26    21   ar
    34    35    28   ar
    35     4    16    1
    36     4    17    1
    37    11    18    1
    38    13    19    1
@<TRIPOS>MOLECULE
*****
 35 38 0 0 0
SMALL
GASTEIGER

@<TRIPOS>ATOM
      1 C          61.5920   89.1824   11.7919 C.2     1  UNL1        0.2511
      2 O          60.3986   89.9674   11.3342 O.2     1  UNL1       -0.2698
      3 N          61.7947   87.7764   11.3101 N.am    1  UNL1       -0.2678
      4 N          65.4962   93.1781    9.8230 N.pl3   1  UNL1       -0.3375
      5 C          64.9316   92.3694   10.9531 C.ar    1  UNL1        0.1568
      6 N          63.7981   91.3916   10.8574 N.ar    1  UNL1       -0.2242
      7 C          63.5672   90.8143   12.2225 C.ar    1  UNL1        0.0967
      8 C          62.5828   89.8035   12.7314 C.ar    1  UNL1        0.0750
      9 C          62.5892   89.4136   14.1799 C.ar    1  UNL1        0.0458
     10 C          63.5800   90.0346   15.1194 C.ar    1  UNL1        0.1682
     11 O          63.5864   89.6448   16.5678 O.3     1  UNL1       -0.5029
     12 C          64.5644   91.0455   14.6103 C.ar    1  UNL1        0.1751
     13 O          65.5553   91.6666   15.5498 O.3     1  UNL1       -0.5025
     14 C          64.5580   91.4354   13.1619 C.ar    1  UNL1        0.0865
     15 S          65.4012   92.3964   12.3774 S.2     1  UNL1       -0.0488
     16 H          65.1184   93.0905    8.9182 H       1  UNL1        0.1442
     17 H          66.2447   93.7965    9.9862 H       1  UNL1        0.1442
     18 H          62.9715   89.0133   16.8857 H       1  UNL1        0.2923
     19 H          65.5592   91.4230   16.4546 H       1  UNL1        0.2923
     20 C          60.8039   87.1554   10.3706 C.3     1  UNL1        0.1208
     21 C          61.2836   86.3973    9.1684 C.ar    1  UNL1       -0.0023
     22 C          62.7358   86.0469    9.0330 C.ar    1  UNL1       -0.0026
     23 C          63.2155   85.2889    7.8308 C.ar    1  UNL1       -0.0003
     24 C          62.2430   84.8812    6.7640 C.ar    1  UNL1       -0.0000
     25 C          60.7908   85.2316    6.8994 C.ar    1  UNL1       -0.0003
     26 C          60.3111   85.9897    8.1016 C.ar    1  UNL1       -0.0026
     27 C          62.9882   86.9915   11.7678 C.3     1  UNL1        0.1208
     28 C          62.8016   85.6475   12.4072 C.ar    1  UNL1       -0.0014
     29 C          62.5020   85.5497   13.8737 C.ar    1  UNL1       -0.0017
     30 C          62.3154   84.2057   14.5131 C.ar    1  UNL1        0.0120
     31 C          62.4284   82.9595   13.6861 C.ar    1  UNL1        0.0682
     32 CL         62.2419   81.6154   14.3255 Cl      1  UNL1       -0.0814
     33 C          62.7281   83.0572   12.2195 C.ar    1  UNL1        0.0679
     34 CL         62.8412   81.8109   11.3924 Cl      1  UNL1       -0.0814
     35 C          62.9147   84.4012   11.5801 C.ar    1  UNL1        0.0096
@<TRIPOS>BOND
     1     4     5    1
     2     5     6   ar
     3     6     7   ar
     4     7     8   ar
     5     8     1    1
     6     1     2    2
     7     1     3   am
     8     3    20    1
     9    20    21    1
    10    21    22   ar
    11    22    23   ar
    12    23    24   ar
    13    24    25   ar
    14    25    26   ar
    15     3    27    1
    16    27    28    1
    17    28    29   ar
    18    29    30   ar
    19    30    31   ar
    20    31    32    1
    21    31    33   ar
    22    33    34    1
    23    33    35   ar
    24     8     9   ar
    25     9    10   ar
    26    10    11    1
    27    10    12   ar
    28    12    13    1
    29    12    14   ar
    30    14    15   ar
    31    15     5   ar
    32    14     7   ar
    33    26    21   ar
    34    35    28   ar
    35     4    16    1
    36     4    17    1
    37    11    18    1
    38    13    19    1
@<TRIPOS>MOLECULE
*****
 35 38 0 0 0
SMALL
GASTEIGER

@<TRIPOS>ATOM
      1 C          62.9384   87.7680   12.2307 C.2     1  UNL1        0.2511
      2 O          63.3572   86.3449   12.4530 O.2     1  UNL1       -0.2698
      3 N          63.4572   88.8515   13.1291 N.am    1  UNL1       -0.2678
      4 N          62.6134   84.3041    7.4370 N.pl3   1  UNL1       -0.3375
      5 C          62.1581   85.5209    8.1867 C.ar    1  UNL1        0.1568
      6 N          62.6490   85.9614    9.5339 N.ar    1  UNL1       -0.2242
      7 C          61.9263   87.2236    9.9006 C.ar    1  UNL1        0.0967
      8 C          62.0009   88.1076   11.1102 C.ar    1  UNL1        0.0750
      9 C          61.1378   89.3313   11.1992 C.ar    1  UNL1        0.0458
     10 C          60.2002   89.6709   10.0786 C.ar    1  UNL1        0.1682
     11 O          59.3372   90.8945   10.1676 O.3     1  UNL1       -0.5029
     12 C          60.1257   88.7868    8.8691 C.ar    1  UNL1        0.1751
     13 O          59.1882   89.1264    7.7485 O.3     1  UNL1       -0.5025
     14 C          60.9888   87.5632    8.7801 C.ar    1  UNL1        0.0865
     15 S          61.1320   86.5109    7.7208 S.2     1  UNL1       -0.0488
     16 H          63.2957   83.7117    7.8279 H       1  UNL1        0.1442
     17 H          62.2299   84.0978    6.5540 H       1  UNL1        0.1442
     18 H          59.3837   91.4467   10.9232 H       1  UNL1        0.2923
     19 H          58.6491   89.8908    7.8041 H       1  UNL1        0.2923
     20 C          64.3947   88.5119   14.2496 C.3     1  UNL1        0.1208
     21 C          63.8881   87.7754   15.4542 C.ar    1  UNL1       -0.0023
     22 C          63.2282   88.5286   16.5711 C.ar    1  UNL1       -0.0026
     23 C          62.7217   87.7922   17.7757 C.ar    1  UNL1       -0.0003
     24 C          62.8749   86.3026   17.8635 C.ar    1  UNL1       -0.0000
     25 C          63.5348   85.5494   16.7466 C.ar    1  UNL1       -0.0003
     26 C          64.0414   86.2859   15.5420 C.ar    1  UNL1       -0.0026
     27 C          63.0383   90.2746   12.9068 C.3     1  UNL1        0.1208
     28 C          64.0352   91.2816   12.4149 C.ar    1  UNL1       -0.0014
     29 C          64.1188   91.6013   10.9517 C.ar    1  UNL1       -0.0017
     30 C          65.1157   92.6084   10.4598 C.ar    1  UNL1        0.0120
     31 C          66.0290   93.2958   11.4310 C.ar    1  UNL1        0.0682
     32 CL         67.0259   94.3029   10.9391 Cl      1  UNL1       -0.0814
     33 C          65.9454   92.9761   12.8942 C.ar    1  UNL1        0.0679
     34 CL         66.8588   93.6636   13.8654 Cl      1  UNL1       -0.0814
     35 C          64.9486   91.9691   13.3861 C.ar    1  UNL1        0.0096
@<TRIPOS>BOND
     1     4     5    1
     2     5     6   ar
     3     6     7   ar
     4     7     8   ar
     5     8     1    1
     6     1     2    2
     7     1     3   am
     8     3    20    1
     9    20    21    1
    10    21    22   ar
    11    22    23   ar
    12    23    24   ar
    13    24    25   ar
    14    25    26   ar
    15     3    27    1
    16    27    28    1
    17    28    29   ar
    18    29    30   ar
    19    30    31   ar
    20    31    32    1
    21    31    33   ar
    22    33    34    1
    23    33    35   ar
    24     8     9   ar
    25     9    10   ar
    26    10    11    1
    27    10    12   ar
    28    12    13    1
    29    12    14   ar
    30    14    15   ar
    31    15     5   ar
    32    14     7   ar
    33    26    21   ar
    34    35    28   ar
    35     4    16    1
    36     4    17    1
    37    11    18    1
    38    13    19    1
@<TRIPOS>MOLECULE
*****
 35 38 0 0 0
SMALL
GASTEIGER

@<TRIPOS>ATOM
      1 C          63.9566   85.7582   13.6336 C.2     1  UNL1        0.2511
      2 O          65.2493   85.0030   13.7264 O.2     1  UNL1       -0.2698
      3 N          62.9009   85.3214   12.6616 N.am    1  UNL1       -0.2678
      4 N          63.8604   91.2139   11.3292 N.pl3   1  UNL1       -0.3375
      5 C          63.7494   90.3117   12.5224 C.ar    1  UNL1        0.1568
      6 N          63.8759   88.8171   12.5125 N.ar    1  UNL1       -0.2242
      7 C          63.6972   88.3274   13.9191 C.ar    1  UNL1        0.0967
      8 C          63.7196   86.9502   14.5128 C.ar    1  UNL1        0.0750
      9 C          63.5050   86.7649   15.9858 C.ar    1  UNL1        0.0458
     10 C          63.2679   87.9569   16.8650 C.ar    1  UNL1        0.1682
     11 O          63.0533   87.7716   18.3379 O.3     1  UNL1       -0.5029
     12 C          63.2455   89.3342   16.2712 C.ar    1  UNL1        0.1751
     13 O          63.0085   90.5262   17.1503 O.3     1  UNL1       -0.5025
     14 C          63.4601   89.5194   14.7982 C.ar    1  UNL1        0.0865
     15 S          63.4924   90.7458   13.9351 S.2     1  UNL1       -0.0488
     16 H          64.0315   90.8324   10.4379 H       1  UNL1        0.1442
     17 H          63.7621   92.1875   11.4373 H       1  UNL1        0.1442
     18 H          63.0673   86.9112   18.7088 H       1  UNL1        0.2923
     19 H          62.8744   90.4104   18.0704 H       1  UNL1        0.2923
     20 C          63.1379   84.1294   11.7824 C.3     1  UNL1        0.1208
     21 C          62.8291   82.7513   12.2880 C.ar    1  UNL1       -0.0023
     22 C          62.2719   82.5662   13.6683 C.ar    1  UNL1       -0.0026
     23 C          61.9631   81.1882   14.1739 C.ar    1  UNL1       -0.0003
     24 C          62.2116   79.9952   13.2993 C.ar    1  UNL1       -0.0000
     25 C          62.7688   80.1802   11.9190 C.ar    1  UNL1       -0.0003
     26 C          63.0776   81.5583   11.4133 C.ar    1  UNL1       -0.0026
     27 C          61.6082   86.0766   12.5688 C.3     1  UNL1        0.1208
     28 C          61.1764   86.6661   11.2589 C.ar    1  UNL1       -0.0014
     29 C          60.6267   88.0608   11.2089 C.ar    1  UNL1       -0.0017
     30 C          60.1949   88.6503    9.8989 C.ar    1  UNL1        0.0120
     31 C          60.3128   87.8451    8.6389 C.ar    1  UNL1        0.0682
     32 CL         59.8810   88.4346    7.3289 Cl      1  UNL1       -0.0814
     33 C          60.8626   86.4503    8.6888 C.ar    1  UNL1        0.0679
     34 CL         60.9805   85.6451    7.4287 Cl      1  UNL1       -0.0814
     35 C          61.2943   85.8608    9.9988 C.ar    1  UNL1        0.0096
@<TRIPOS>BOND
     1     4     5    1
     2     5     6   ar
     3     6     7   ar
     4     7     8   ar
     5     8     1    1
     6     1     2    2
     7     1     3   am
     8     3    20    1
     9    20    21    1
    10    21    22   ar
    11    22    23   ar
    12    23    24   ar
    13    24    25   ar
    14    25    26   ar
    15     3    27    1
    16    27    28    1
    17    28    29   ar
    18    29    30   ar
    19    30    31   ar
    20    31    32    1
    21    31    33   ar
    22    33    34    1
    23    33    35   ar
    24     8     9   ar
    25     9    10   ar
    26    10    11    1
    27    10    12   ar
    28    12    13    1
    29    12    14   ar
    30    14    15   ar
    31    15     5   ar
    32    14     7   ar
    33    26    21   ar
    34    35    28   ar
    35     4    16    1
    36     4    17    1
    37    11    18    1
    38    13    19    1
@<TRIPOS>MOLECULE
*****
 35 38 0 0 0
SMALL
GASTEIGER

@<TRIPOS>ATOM
      1 C          64.1752   85.6493   13.5152 C.2     1  UNL1        0.2511
      2 O          65.1498   84.7796   14.2526 O.2     1  UNL1       -0.2698
      3 N          63.4404   85.1095   12.3241 N.am    1  UNL1       -0.2678
      4 N          62.6674   86.7779   19.1310 N.pl3   1  UNL1       -0.3375
      5 C          62.9694   87.2743   17.7482 C.ar    1  UNL1        0.1568
      6 N          63.3409   86.4259   16.5683 N.ar    1  UNL1       -0.2242
      7 C          63.5540   87.3336   15.3933 C.ar    1  UNL1        0.0967
      8 C          63.9355   87.0588   13.9689 C.ar    1  UNL1        0.0750
      9 C          64.0771   88.1935   12.9981 C.ar    1  UNL1        0.0458
     10 C          63.8374   89.6030   13.4518 C.ar    1  UNL1        0.1682
     11 O          63.9790   90.7377   12.4810 O.3     1  UNL1       -0.5029
     12 C          63.4559   89.8778   14.8762 C.ar    1  UNL1        0.1751
     13 O          63.2161   91.2873   15.3299 O.3     1  UNL1       -0.5025
     14 C          63.3143   88.7431   15.8470 C.ar    1  UNL1        0.0865
     15 S          62.9529   88.7065   17.3023 S.2     1  UNL1       -0.0488
     16 H          62.7046   85.8138   19.3270 H       1  UNL1        0.1442
     17 H          62.4320   87.4161   19.8427 H       1  UNL1        0.1442
     18 H          64.2173   90.5661   11.5912 H       1  UNL1        0.2923
     19 H          63.3046   91.9961   14.7235 H       1  UNL1        0.2923
     20 C          63.6802   83.7000   11.8704 C.3     1  UNL1        0.1208
     21 C          62.9876   82.5621   12.5601 C.ar    1  UNL1       -0.0023
     22 C          62.2083   82.8099   13.8175 C.ar    1  UNL1       -0.0026
     23 C          61.5158   81.6720   14.5072 C.ar    1  UNL1       -0.0003
     24 C          61.6026   80.2863   13.9394 C.ar    1  UNL1       -0.0000
     25 C          62.3819   80.0385   12.6819 C.ar    1  UNL1       -0.0003
     26 C          63.0745   81.1765   11.9922 C.ar    1  UNL1       -0.0026
     27 C          62.4659   85.9792   11.5867 C.3     1  UNL1        0.1208
     28 C          62.1823   85.7248   10.1359 C.ar    1  UNL1       -0.0014
     29 C          63.1925   85.0099    9.2884 C.ar    1  UNL1       -0.0017
     30 C          62.9088   84.7554    7.8375 C.ar    1  UNL1        0.0120
     31 C          61.6150   85.2159    7.2343 C.ar    1  UNL1        0.0682
     32 CL         61.3313   84.9615    5.7835 Cl      1  UNL1       -0.0814
     33 C          60.6048   85.9309    8.0819 C.ar    1  UNL1        0.0679
     34 CL         59.3109   86.3914    7.4786 Cl      1  UNL1       -0.0814
     35 C          60.8884   86.1853    9.5326 C.ar    1  UNL1        0.0096
@<TRIPOS>BOND
     1     4     5    1
     2     5     6   ar
     3     6     7   ar
     4     7     8   ar
     5     8     1    1
     6     1     2    2
     7     1     3   am
     8     3    20    1
     9    20    21    1
    10    21    22   ar
    11    22    23   ar
    12    23    24   ar
    13    24    25   ar
    14    25    26   ar
    15     3    27    1
    16    27    28    1
    17    28    29   ar
    18    29    30   ar
    19    30    31   ar
    20    31    32    1
    21    31    33   ar
    22    33    34    1
    23    33    35   ar
    24     8     9   ar
    25     9    10   ar
    26    10    11    1
    27    10    12   ar
    28    12    13    1
    29    12    14   ar
    30    14    15   ar
    31    15     5   ar
    32    14     7   ar
    33    26    21   ar
    34    35    28   ar
    35     4    16    1
    36     4    17    1
    37    11    18    1
    38    13    19    1
@<TRIPOS>MOLECULE
*****
 35 38 0 0 0
SMALL
GASTEIGER

@<TRIPOS>ATOM
      1 C          63.7499   89.8553   14.7901 C.2     1  UNL1        0.2511
      2 O          63.3336   90.3720   16.1353 O.2     1  UNL1       -0.2698
      3 N          63.7501   88.3796   14.5207 N.am    1  UNL1       -0.2678
      4 N          68.1749   93.6796   15.7274 N.pl3   1  UNL1       -0.3375
      5 C          67.1197   93.1196   14.8202 C.ar    1  UNL1        0.1568
      6 N          66.1628   92.0148   15.1573 N.ar    1  UNL1       -0.2242
      7 C          65.2879   91.7785   13.9620 C.ar    1  UNL1        0.0967
      8 C          64.1660   90.8141   13.7143 C.ar    1  UNL1        0.0750
      9 C          63.4603   90.8086   12.3907 C.ar    1  UNL1        0.0458
     10 C          63.8764   91.7674   11.3148 C.ar    1  UNL1        0.1682
     11 O          63.1707   91.7619    9.9912 O.3     1  UNL1       -0.5029
     12 C          64.9983   92.7318   11.5626 C.ar    1  UNL1        0.1751
     13 O          65.4144   93.6907   10.4868 O.3     1  UNL1       -0.5025
     14 C          65.7040   92.7373   12.8862 C.ar    1  UNL1        0.0865
     15 S          66.8361   93.5662   13.4166 S.2     1  UNL1       -0.0488
     16 H          68.2846   93.3184   16.6366 H       1  UNL1        0.1442
     17 H          68.7577   94.4084   15.4136 H       1  UNL1        0.1442
     18 H          62.4699   91.1595    9.8365 H       1  UNL1        0.2923
     19 H          64.9736   93.6872    9.6600 H       1  UNL1        0.2923
     20 C          63.3340   87.4208   15.5966 C.3     1  UNL1        0.1208
     21 C          63.4895   85.9437   15.3860 C.ar    1  UNL1       -0.0023
     22 C          62.3432   85.0203   15.6742 C.ar    1  UNL1       -0.0026
     23 C          62.4986   83.5433   15.4637 C.ar    1  UNL1       -0.0003
     24 C          63.8005   82.9897   14.9649 C.ar    1  UNL1       -0.0000
     25 C          64.9469   83.9132   14.6766 C.ar    1  UNL1       -0.0003
     26 C          64.7913   85.3902   14.8872 C.ar    1  UNL1       -0.0026
     27 C          64.1664   87.8629   13.1755 C.3     1  UNL1        0.1208
     28 C          63.1267   87.4942   12.1591 C.ar    1  UNL1       -0.0014
     29 C          62.7474   86.0564   11.9618 C.ar    1  UNL1       -0.0017
     30 C          61.7077   85.6878   10.9454 C.ar    1  UNL1        0.0120
     31 C          61.0473   86.7569   10.1263 C.ar    1  UNL1        0.0682
     32 CL         60.0075   86.3882    9.1099 Cl      1  UNL1       -0.0814
     33 C          61.4266   88.1946   10.3236 C.ar    1  UNL1        0.0679
     34 CL         60.7661   89.2638    9.5045 Cl      1  UNL1       -0.0814
     35 C          62.4663   88.5633   11.3400 C.ar    1  UNL1        0.0096
@<TRIPOS>BOND
     1     4     5    1
     2     5     6   ar
     3     6     7   ar
     4     7     8   ar
     5     8     1    1
     6     1     2    2
     7     1     3   am
     8     3    20    1
     9    20    21    1
    10    21    22   ar
    11    22    23   ar
    12    23    24   ar
    13    24    25   ar
    14    25    26   ar
    15     3    27    1
    16    27    28    1
    17    28    29   ar
    18    29    30   ar
    19    30    31   ar
    20    31    32    1
    21    31    33   ar
    22    33    34    1
    23    33    35   ar
    24     8     9   ar
    25     9    10   ar
    26    10    11    1
    27    10    12   ar
    28    12    13    1
    29    12    14   ar
    30    14    15   ar
    31    15     5   ar
    32    14     7   ar
    33    26    21   ar
    34    35    28   ar
    35     4    16    1
    36     4    17    1
    37    11    18    1
    38    13    19    1
@<TRIPOS>MOLECULE
*****
 35 38 0 0 0
SMALL
GASTEIGER

@<TRIPOS>ATOM
      1 C          63.0648   84.9375   10.8006 C.2     1  UNL1        0.2511
      2 O          63.5173   84.0348    9.6914 O.2     1  UNL1       -0.2698
      3 N          62.5488   86.3106   10.4868 N.am    1  UNL1       -0.2678
      4 N          62.5212   79.1807   12.0844 N.pl3   1  UNL1       -0.3375
      5 C          62.7181   80.5952   12.5432 C.ar    1  UNL1        0.1568
      6 N          62.7826   81.8071   11.6617 N.ar    1  UNL1       -0.2242
      7 C          62.9894   83.0071   12.5377 C.ar    1  UNL1        0.0967
      8 C          63.1283   84.4672   12.2235 C.ar    1  UNL1        0.0750
      9 C          63.3305   85.4570   13.3323 C.ar    1  UNL1        0.0458
     10 C          63.3940   84.9867   14.7552 C.ar    1  UNL1        0.1682
     11 O          63.5962   85.9765   15.8640 O.3     1  UNL1       -0.5029
     12 C          63.2552   83.5265   15.0694 C.ar    1  UNL1        0.1751
     13 O          63.3186   83.0562   16.4923 O.3     1  UNL1       -0.5025
     14 C          63.0529   82.5367   13.9606 C.ar    1  UNL1        0.0865
     15 S          62.8852   81.0461   13.9640 S.2     1  UNL1       -0.0488
     16 H          62.4205   78.9839   11.1251 H       1  UNL1        0.1442
     17 H          62.4927   78.4492   12.7427 H       1  UNL1        0.1442
     18 H          63.6829   86.8886   15.6677 H       1  UNL1        0.2923
     19 H          63.4450   83.6745   17.1849 H       1  UNL1        0.2923
     20 C          62.4853   86.7810    9.0639 C.3     1  UNL1        0.1208
     21 C          61.1768   87.2208    8.4770 C.ar    1  UNL1       -0.0023
     22 C          60.8556   88.6822    8.3716 C.ar    1  UNL1       -0.0026
     23 C          59.5471   89.1221    7.7847 C.ar    1  UNL1       -0.0003
     24 C          58.5598   88.1005    7.3033 C.ar    1  UNL1       -0.0000
     25 C          58.8810   86.6391    7.4087 C.ar    1  UNL1       -0.0003
     26 C          60.1896   86.1993    7.9956 C.ar    1  UNL1       -0.0026
     27 C          62.0962   87.2133   11.5960 C.3     1  UNL1        0.1208
     28 C          62.7862   88.5256   11.8237 C.ar    1  UNL1       -0.0014
     29 C          62.6636   89.6234   10.8088 C.ar    1  UNL1       -0.0017
     30 C          63.3535   90.9357   11.0366 C.ar    1  UNL1        0.0120
     31 C          64.1660   91.1502   12.2791 C.ar    1  UNL1        0.0682
     32 CL         64.8560   92.4626   12.5068 Cl      1  UNL1       -0.0814
     33 C          64.2886   90.0524   13.2939 C.ar    1  UNL1        0.0679
     34 CL         65.1012   90.2670   14.5364 Cl      1  UNL1       -0.0814
     35 C          63.5987   88.7402   13.0662 C.ar    1  UNL1        0.0096
@<TRIPOS>BOND
     1     4     5    1
     2     5     6   ar
     3     6     7   ar
     4     7     8   ar
     5     8     1    1
     6     1     2    2
     7     1     3   am
     8     3    20    1
     9    20    21    1
    10    21    22   ar
    11    22    23   ar
    12    23    24   ar
    13    24    25   ar
    14    25    26   ar
    15     3    27    1
    16    27    28    1
    17    28    29   ar
    18    29    30   ar
    19    30    31   ar
    20    31    32    1
    21    31    33   ar
    22    33    34    1
    23    33    35   ar
    24     8     9   ar
    25     9    10   ar
    26    10    11    1
    27    10    12   ar
    28    12    13    1
    29    12    14   ar
    30    14    15   ar
    31    15     5   ar
    32    14     7   ar
    33    26    21   ar
    34    35    28   ar
    35     4    16    1
    36     4    17    1
    37    11    18    1
    38    13    19    1
@<TRIPOS>MOLECULE
*****
 35 38 0 0 0
SMALL
GASTEIGER

@<TRIPOS>ATOM
      1 C          62.8690   90.2545   11.8490 C.2     1  UNL1        0.2511
      2 O          62.1845   91.4625   11.2814 O.2     1  UNL1       -0.2698
      3 N          63.9297   90.4168   12.8973 N.am    1  UNL1       -0.2678
      4 N          59.3161   89.5914    7.1563 N.pl3   1  UNL1       -0.3375
      5 C          60.1386   88.9813    8.2523 C.ar    1  UNL1        0.1568
      6 N          60.9264   89.7312    9.2853 N.ar    1  UNL1       -0.2242
      7 C          61.5925   88.7275   10.1791 C.ar    1  UNL1        0.0967
      8 C          62.4929   88.8843   11.3685 C.ar    1  UNL1        0.0750
      9 C          63.0172   87.6707   12.0774 C.ar    1  UNL1        0.0458
     10 C          62.6410   86.3005   11.5969 C.ar    1  UNL1        0.1682
     11 O          63.1653   85.0870   12.3058 O.3     1  UNL1       -0.5029
     12 C          61.7406   86.1438   10.4075 C.ar    1  UNL1        0.1751
     13 O          61.3645   84.7735    9.9269 O.3     1  UNL1       -0.5025
     14 C          61.2163   87.3573    9.6986 C.ar    1  UNL1        0.0865
     15 S          60.3178   87.5141    8.5078 S.2     1  UNL1       -0.0488
     16 H          59.2599   90.5705    7.0698 H       1  UNL1        0.1442
     17 H          58.8323   89.0128    6.5235 H       1  UNL1        0.1442
     18 H          63.7278   85.1849   13.0487 H       1  UNL1        0.2923
     19 H          61.6919   84.0154   10.3697 H       1  UNL1        0.2923
     20 C          64.3058   91.7870   13.3778 C.3     1  UNL1        0.1208
     21 C          65.6188   92.0050   14.0698 C.ar    1  UNL1       -0.0023
     22 C          66.8995   91.9141   13.2942 C.ar    1  UNL1       -0.0026
     23 C          68.2124   92.1320   13.9861 C.ar    1  UNL1       -0.0003
     24 C          68.2446   92.4408   15.4537 C.ar    1  UNL1       -0.0000
     25 C          66.9639   92.5318   16.2292 C.ar    1  UNL1       -0.0003
     26 C          65.6510   92.3138   15.5373 C.ar    1  UNL1       -0.0026
     27 C          64.6142   89.2088   13.4649 C.3     1  UNL1        0.1208
     28 C          64.1032   88.5816   14.7280 C.ar    1  UNL1       -0.0014
     29 C          63.4783   89.4365   15.7904 C.ar    1  UNL1       -0.0017
     30 C          62.9673   88.8091   17.0536 C.ar    1  UNL1        0.0120
     31 C          63.0812   87.3270   17.2542 C.ar    1  UNL1        0.0682
     32 CL         62.5702   86.6997   18.5173 Cl      1  UNL1       -0.0814
     33 C          63.7060   86.4721   16.1918 C.ar    1  UNL1        0.0679
     34 CL         63.8199   84.9899   16.3925 Cl      1  UNL1       -0.0814
     35 C          64.2170   87.0994   14.9287 C.ar    1  UNL1        0.0096
@<TRIPOS>BOND
     1     4     5    1
     2     5     6   ar
     3     6     7   ar
     4     7     8   ar
     5     8     1    1
     6     1     2    2
     7     1     3   am
     8     3    20    1
     9    20    21    1
    10    21    22   ar
    11    22    23   ar
    12    23    24   ar
    13    24    25   ar
    14    25    26   ar
    15     3    27    1
    16    27    28    1
    17    28    29   ar
    18    29    30   ar
    19    30    31   ar
    20    31    32    1
    21    31    33   ar
    22    33    34    1
    23    33    35   ar
    24     8     9   ar
    25     9    10   ar
    26    10    11    1
    27    10    12   ar
    28    12    13    1
    29    12    14   ar
    30    14    15   ar
    31    15     5   ar
    32    14     7   ar
    33    26    21   ar
    34    35    28   ar
    35     4    16    1
    36     4    17    1
    37    11    18    1
    38    13    19    1
