@<TRIPOS>MOLECULE
*****
 26 29 0 0 0
SMALL
GASTEIGER

@<TRIPOS>ATOM
      1 C          63.0187   83.4470   13.2561 C.ar    1  UNL1        0.1366
      2 C          63.8095   84.0918   14.3555 C.ar    1  UNL1        0.0353
      3 C          64.0381   85.5742   14.3449 C.ar    1  UNL1        0.0630
      4 CL         64.8290   86.2190   15.4444 Cl      1  UNL1       -0.0821
      5 C          63.4759   86.4119   13.2349 C.ar    1  UNL1        0.0564
      6 C          63.5371   87.8851   12.9593 C.ar    1  UNL1        0.0730
      7 CL         64.2297   88.9122   13.8050 Cl      1  UNL1       -0.0810
      8 C          62.7840   88.1508   11.6895 C.ar    1  UNL1        0.0486
      9 N          62.2574   86.8418   11.1803 N.ar    1  UNL1       -0.3160
     10 C          62.6851   85.7671   12.1355 C.ar    1  UNL1        0.1453
     11 N          62.4564   84.2847   12.1461 N.ar    1  UNL1       -0.2236
     12 C          61.4458   86.6425    9.9348 C.3     1  UNL1        0.1023
     13 C          62.0177   85.8714    8.7823 C.3     1  UNL1        0.0254
     14 C          61.2059   85.6721    7.5368 C.3     1  UNL1        0.0191
     15 C          59.8224   86.2439    7.4437 C.3     1  UNL1        0.0687
     16 N          59.2505   87.0151    8.5962 N.3     1  UNL1       -0.2959
     17 C          60.0622   87.2144    9.8417 C.3     1  UNL1        0.0914
     18 H          58.3949   86.5353    8.8759 H       1  UNL1        0.1233
     19 N          62.3794   81.2781   14.5355 N.am    1  UNL1       -0.3241
     20 C          62.7901   81.9646   13.2667 C.2     1  UNL1        0.2606
     21 O          62.9721   81.1686   12.0084 O.2     1  UNL1       -0.2687
     22 H          62.2294   80.3051   14.5425 H       1  UNL1        0.1453
     23 H          62.2599   81.8005   15.3614 H       1  UNL1        0.1453
     24 C          62.5914   89.4904   11.0425 C.3     1  UNL1        0.0392
     25 C          61.6847   90.5313   10.4557 C.3     1  UNL1        0.0063
     26 C          63.1646   90.7696   10.5087 C.3     1  UNL1        0.0063
@<TRIPOS>BOND
     1    19    20   am
     2    20    21    2
     3    20     1    1
     4     1     2   ar
     5     2     3   ar
     6     3     4    1
     7     3     5   ar
     8     5     6   ar
     9     6     7    1
    10     6     8   ar
    11     8    24    1
    12    24    25    1
    13    25    26    1
    14     8     9   ar
    15    12     9    1
    16    12    13    1
    17    13    14    1
    18    14    15    1
    19    15    16    1
    20    16    17    1
    21     9    10   ar
    22    10    11   ar
    23    11     1   ar
    24    10     5   ar
    25    26    24    1
    26    17    12    1
    27    19    22    1
    28    19    23    1
    29    16    18    1
@<TRIPOS>MOLECULE
*****
 26 29 0 0 0
SMALL
GASTEIGER

@<TRIPOS>ATOM
      1 C          60.7755   86.5737    8.9058 C.ar    1  UNL1        0.1366
      2 C          61.0530   88.0387    9.0687 C.ar    1  UNL1        0.0353
      3 C          61.8574   88.5242   10.2380 C.ar    1  UNL1        0.0630
      4 CL         62.1349   89.9894   10.4009 Cl      1  UNL1       -0.0821
      5 C          62.3843   87.5447   11.2444 C.ar    1  UNL1        0.0564
      6 C          63.2011   87.7261   12.4894 C.ar    1  UNL1        0.0730
      7 CL         63.7025   89.0313   13.0324 Cl      1  UNL1       -0.0810
      8 C          63.4283   86.3732   13.0959 C.ar    1  UNL1        0.0486
      9 N          62.7521   85.3556   12.2258 N.ar    1  UNL1       -0.3160
     10 C          62.1068   86.0797   11.0815 C.ar    1  UNL1        0.1453
     11 N          61.3024   85.5941    9.9122 N.ar    1  UNL1       -0.2236
     12 C          62.7256   83.8741   12.4590 C.3     1  UNL1        0.1023
     13 C          63.1113   82.9341   11.3555 C.3     1  UNL1        0.0254
     14 C          63.0848   81.4526   11.5888 C.3     1  UNL1        0.0191
     15 C          62.6728   80.9111   12.9256 C.3     1  UNL1        0.0687
     16 N          62.2871   81.8510   14.0291 N.3     1  UNL1       -0.2959
     17 C          62.3136   83.3325   13.7958 C.3     1  UNL1        0.0914
     18 H          62.9178   81.6644   14.8087 H       1  UNL1        0.1233
     19 N          58.5864   86.6172    7.5073 N.am    1  UNL1       -0.3241
     20 C          59.9711   86.0882    7.7365 C.2     1  UNL1        0.2606
     21 O          60.5514   85.0736    6.7965 O.2     1  UNL1       -0.2687
     22 H          58.0584   86.2986    6.7399 H       1  UNL1        0.1453
     23 H          58.2055   87.2831    8.1244 H       1  UNL1        0.1453
     24 C          64.1970   86.0879   14.3521 C.3     1  UNL1        0.0392
     25 C          64.2478   85.9774   15.8472 C.3     1  UNL1        0.0063
     26 C          65.4775   85.7045   15.0327 C.3     1  UNL1        0.0063
@<TRIPOS>BOND
     1    19    20   am
     2    20    21    2
     3    20     1    1
     4     1     2   ar
     5     2     3   ar
     6     3     4    1
     7     3     5   ar
     8     5     6   ar
     9     6     7    1
    10     6     8   ar
    11     8    24    1
    12    24    25    1
    13    25    26    1
    14     8     9   ar
    15    12     9    1
    16    12    13    1
    17    13    14    1
    18    14    15    1
    19    15    16    1
    20    16    17    1
    21     9    10   ar
    22    10    11   ar
    23    11     1   ar
    24    10     5   ar
    25    26    24    1
    26    17    12    1
    27    19    22    1
    28    19    23    1
    29    16    18    1
@<TRIPOS>MOLECULE
*****
 26 29 0 0 0
SMALL
GASTEIGER

@<TRIPOS>ATOM
      1 C          66.7451   92.6377   14.1422 C.ar    1  UNL1        0.1366
      2 C          66.5607   93.4210   12.8764 C.ar    1  UNL1        0.0353
      3 C          65.5562   92.9727   11.8566 C.ar    1  UNL1        0.0630
      4 CL         65.3719   93.7561   10.5907 Cl      1  UNL1       -0.0821
      5 C          64.7362   91.7411   12.1025 C.ar    1  UNL1        0.0564
      6 C          63.6773   91.0607   11.2865 C.ar    1  UNL1        0.0730
      7 CL         63.1765   91.5060    9.9446 Cl      1  UNL1       -0.0810
      8 C          63.2073   89.8569   12.0480 C.ar    1  UNL1        0.0486
      9 N          63.9756   89.7932   13.3347 N.ar    1  UNL1       -0.3160
     10 C          64.9205   90.9578   13.3684 C.ar    1  UNL1        0.1453
     11 N          65.9250   91.4061   14.3882 N.ar    1  UNL1       -0.2236
     12 C          63.8255   88.7485   14.4005 C.3     1  UNL1        0.1023
     13 C          64.2531   87.3361   14.1318 C.3     1  UNL1        0.0254
     14 C          64.1029   86.2914   15.1977 C.3     1  UNL1        0.0191
     15 C          63.5252   86.6592   16.5322 C.3     1  UNL1        0.0687
     16 N          63.0976   88.0716   16.8009 N.3     1  UNL1       -0.2959
     17 C          63.2478   89.1163   15.7351 C.3     1  UNL1        0.0914
     18 H          63.6342   88.3936   17.6064 H       1  UNL1        0.1233
     19 N          67.2942   93.5139   16.5256 N.am    1  UNL1       -0.3241
     20 C          67.7496   93.0859   15.1621 C.2     1  UNL1        0.2606
     21 O          69.2095   93.1062   14.8183 O.2     1  UNL1       -0.2687
     22 H          67.9534   93.8082   17.1950 H       1  UNL1        0.1453
     23 H          66.3360   93.5006   16.7512 H       1  UNL1        0.1453
     24 C          62.1538   88.8870   11.6012 C.3     1  UNL1        0.0392
     25 C          61.7626   87.5117   11.1478 C.3     1  UNL1        0.0063
     26 C          60.7205   88.5824   11.2807 C.3     1  UNL1        0.0063
@<TRIPOS>BOND
     1    19    20   am
     2    20    21    2
     3    20     1    1
     4     1     2   ar
     5     2     3   ar
     6     3     4    1
     7     3     5   ar
     8     5     6   ar
     9     6     7    1
    10     6     8   ar
    11     8    24    1
    12    24    25    1
    13    25    26    1
    14     8     9   ar
    15    12     9    1
    16    12    13    1
    17    13    14    1
    18    14    15    1
    19    15    16    1
    20    16    17    1
    21     9    10   ar
    22    10    11   ar
    23    11     1   ar
    24    10     5   ar
    25    26    24    1
    26    17    12    1
    27    19    22    1
    28    19    23    1
    29    16    18    1
@<TRIPOS>MOLECULE
*****
 26 29 0 0 0
SMALL
GASTEIGER

@<TRIPOS>ATOM
      1 C          63.5615   88.8998   13.3392 C.ar    1  UNL1        0.1366
      2 C          64.1208   88.3319   14.6098 C.ar    1  UNL1        0.0353
      3 C          64.2464   86.8464   14.7760 C.ar    1  UNL1        0.0630
      4 CL         64.8057   86.2785   16.0468 Cl      1  UNL1       -0.0821
      5 C          63.8126   85.9288   13.6716 C.ar    1  UNL1        0.0564
      6 C          63.8162   84.4339   13.5490 C.ar    1  UNL1        0.0730
      7 CL         64.2931   83.4650   14.5901 Cl      1  UNL1       -0.0810
      8 C          63.2591   84.0778   12.2025 C.ar    1  UNL1        0.0486
      9 N          62.9112   85.3527   11.4929 N.ar    1  UNL1       -0.3160
     10 C          63.2533   86.4967   12.4009 C.ar    1  UNL1        0.1453
     11 N          63.1278   87.9822   12.2347 N.ar    1  UNL1       -0.2236
     12 C          62.3243   85.4641   10.1170 C.3     1  UNL1        0.1023
     13 C          63.0929   84.9619    8.9309 C.3     1  UNL1        0.0254
     14 C          62.5059   85.0733    7.5550 C.3     1  UNL1        0.0191
     15 C          61.1504   85.6870    7.3653 C.3     1  UNL1        0.0687
     16 N          60.3818   86.1893    8.5515 N.3     1  UNL1       -0.2959
     17 C          60.9688   86.0778    9.9273 C.3     1  UNL1        0.0914
     18 H          59.4978   85.6807    8.5664 H       1  UNL1        0.1233
     19 N          62.7122   90.9486   11.9861 N.am    1  UNL1       -0.3241
     20 C          63.4360   90.3852   13.1730 C.2     1  UNL1        0.2606
     21 O          64.0342   91.3073   14.1936 O.2     1  UNL1       -0.2687
     22 H          62.6298   91.9236   11.8771 H       1  UNL1        0.1453
     23 H          62.3195   90.3434   11.3162 H       1  UNL1        0.1453
     24 C          63.0811   82.6904   11.6608 C.3     1  UNL1        0.0392
     25 C          62.5915   81.2827   11.8299 C.3     1  UNL1        0.0063
     26 C          63.2626   81.6950   10.5534 C.3     1  UNL1        0.0063
@<TRIPOS>BOND
     1    19    20   am
     2    20    21    2
     3    20     1    1
     4     1     2   ar
     5     2     3   ar
     6     3     4    1
     7     3     5   ar
     8     5     6   ar
     9     6     7    1
    10     6     8   ar
    11     8    24    1
    12    24    25    1
    13    25    26    1
    14     8     9   ar
    15    12     9    1
    16    12    13    1
    17    13    14    1
    18    14    15    1
    19    15    16    1
    20    16    17    1
    21     9    10   ar
    22    10    11   ar
    23    11     1   ar
    24    10     5   ar
    25    26    24    1
    26    17    12    1
    27    19    22    1
    28    19    23    1
    29    16    18    1
@<TRIPOS>MOLECULE
*****
 26 29 0 0 0
SMALL
GASTEIGER

@<TRIPOS>ATOM
      1 C          63.3814   89.0382   13.3721 C.ar    1  UNL1        0.1366
      2 C          62.7290   90.2353   12.7466 C.ar    1  UNL1        0.0353
      3 C          61.9980   90.0962   11.4442 C.ar    1  UNL1        0.0630
      4 CL         61.3456   91.2934   10.8187 Cl      1  UNL1       -0.0821
      5 C          61.9193   88.7599   10.7673 C.ar    1  UNL1        0.0564
      6 C          61.2732   88.3197    9.4872 C.ar    1  UNL1        0.0730
      7 CL         60.5083   89.1950    8.5392 Cl      1  UNL1       -0.0810
      8 C          61.5262   86.8505    9.3215 C.ar    1  UNL1        0.0486
      9 N          62.3287   86.3827   10.4992 N.ar    1  UNL1       -0.3160
     10 C          62.5717   87.5628   11.3928 C.ar    1  UNL1        0.1453
     11 N          63.3027   87.7020   12.6952 N.ar    1  UNL1       -0.2236
     12 C          62.8047   84.9809   10.7410 C.3     1  UNL1        0.1023
     13 C          63.6312   84.2801    9.7039 C.3     1  UNL1        0.0254
     14 C          64.1072   82.8784    9.9457 C.3     1  UNL1        0.0191
     15 C          63.7566   82.1774   11.2247 C.3     1  UNL1        0.0687
     16 N          62.9301   82.8782   12.2619 N.3     1  UNL1       -0.2959
     17 C          62.4542   84.2800   12.0200 C.3     1  UNL1        0.0914
     18 H          63.4863   82.8995   13.1166 H       1  UNL1        0.1233
     19 N          63.6241   88.4471   15.8903 N.am    1  UNL1       -0.3241
     20 C          64.1124   89.1773   14.6745 C.2     1  UNL1        0.2606
     21 O          65.3317   90.0466   14.7610 O.2     1  UNL1       -0.2687
     22 H          64.1039   88.5385   16.7451 H       1  UNL1        0.1453
     23 H          62.8238   87.8766   15.8335 H       1  UNL1        0.1453
     24 C          61.0587   85.9987    8.1787 C.3     1  UNL1        0.0392
     25 C          59.9624   85.5422    7.2622 C.3     1  UNL1        0.0063
     26 C          61.3452   84.9797    7.1159 C.3     1  UNL1        0.0063
@<TRIPOS>BOND
     1    19    20   am
     2    20    21    2
     3    20     1    1
     4     1     2   ar
     5     2     3   ar
     6     3     4    1
     7     3     5   ar
     8     5     6   ar
     9     6     7    1
    10     6     8   ar
    11     8    24    1
    12    24    25    1
    13    25    26    1
    14     8     9   ar
    15    12     9    1
    16    12    13    1
    17    13    14    1
    18    14    15    1
    19    15    16    1
    20    16    17    1
    21     9    10   ar
    22    10    11   ar
    23    11     1   ar
    24    10     5   ar
    25    26    24    1
    26    17    12    1
    27    19    22    1
    28    19    23    1
    29    16    18    1
@<TRIPOS>MOLECULE
*****
 26 29 0 0 0
SMALL
GASTEIGER

@<TRIPOS>ATOM
      1 C          63.5290   89.2741   14.8194 C.ar    1  UNL1        0.1366
      2 C          62.5214   89.1526   13.7150 C.ar    1  UNL1        0.0353
      3 C          62.6848   89.9561   12.4589 C.ar    1  UNL1        0.0630
      4 CL         61.6771   89.8346   11.3544 Cl      1  UNL1       -0.0821
      5 C          63.8559   90.8810   12.3073 C.ar    1  UNL1        0.0564
      6 C          64.2774   91.7925   11.1930 C.ar    1  UNL1        0.0730
      7 CL         63.5571   91.9853    9.8915 Cl      1  UNL1       -0.0810
      8 C          65.5455   92.4773   11.6089 C.ar    1  UNL1        0.0486
      9 N          65.9078   91.9890   12.9801 N.ar    1  UNL1       -0.3160
     10 C          64.8636   91.0024   13.4117 C.ar    1  UNL1        0.1453
     11 N          64.7001   90.1990   14.6678 N.ar    1  UNL1       -0.2236
     12 C          67.1043   92.4129   13.7794 C.3     1  UNL1        0.1023
     13 C          66.9356   93.3352   14.9503 C.3     1  UNL1        0.0254
     14 C          68.1321   93.7589   15.7495 C.3     1  UNL1        0.0191
     15 C          69.4972   93.2605   15.3778 C.3     1  UNL1        0.0687
     16 N          69.6658   92.3383   14.2069 N.3     1  UNL1       -0.2959
     17 C          68.4694   91.9145   13.4077 C.3     1  UNL1        0.0914
     18 H          70.0988   91.4862   14.5632 H       1  UNL1        0.1233
     19 N          63.1072   89.1633   17.3806 N.am    1  UNL1       -0.3241
     20 C          63.3656   88.4706   16.0755 C.2     1  UNL1        0.2606
     21 O          63.4605   86.9745   16.0265 O.2     1  UNL1       -0.2687
     22 H          62.9999   88.6360   18.2050 H       1  UNL1        0.1453
     23 H          63.0449   90.1453   17.4128 H       1  UNL1        0.1453
     24 C          66.3160   93.4752   10.7961 C.3     1  UNL1        0.0392
     25 C          67.3208   93.7795    9.7247 C.3     1  UNL1        0.0063
     26 C          66.6458   94.8993   10.4597 C.3     1  UNL1        0.0063
@<TRIPOS>BOND
     1    19    20   am
     2    20    21    2
     3    20     1    1
     4     1     2   ar
     5     2     3   ar
     6     3     4    1
     7     3     5   ar
     8     5     6   ar
     9     6     7    1
    10     6     8   ar
    11     8    24    1
    12    24    25    1
    13    25    26    1
    14     8     9   ar
    15    12     9    1
    16    12    13    1
    17    13    14    1
    18    14    15    1
    19    15    16    1
    20    16    17    1
    21     9    10   ar
    22    10    11   ar
    23    11     1   ar
    24    10     5   ar
    25    26    24    1
    26    17    12    1
    27    19    22    1
    28    19    23    1
    29    16    18    1
@<TRIPOS>MOLECULE
*****
 26 29 0 0 0
SMALL
GASTEIGER

@<TRIPOS>ATOM
      1 C          62.6389   90.1748   11.5881 C.ar    1  UNL1        0.1366
      2 C          62.2255   89.7639   12.9702 C.ar    1  UNL1        0.0353
      3 C          63.0528   90.1720   14.1529 C.ar    1  UNL1        0.0630
      4 CL         62.6393   89.7611   15.5351 Cl      1  UNL1       -0.0821
      5 C          64.2935   90.9910   13.9536 C.ar    1  UNL1        0.0564
      6 C          65.3014   91.5379   14.9207 C.ar    1  UNL1        0.0730
      7 CL         65.2771   91.3660   16.4106 Cl      1  UNL1       -0.0810
      8 C          66.3376   92.2868   14.1362 C.ar    1  UNL1        0.0486
      9 N          65.9703   92.2028   12.6844 N.ar    1  UNL1       -0.3160
     10 C          64.7069   91.4019   12.5715 C.ar    1  UNL1        0.1453
     11 N          63.8796   90.9938   11.3887 N.ar    1  UNL1       -0.2236
     12 C          66.7324   92.8125   11.5453 C.3     1  UNL1        0.1023
     13 C          67.6878   91.9746   10.7484 C.3     1  UNL1        0.0254
     14 C          68.4499   92.5844    9.6094 C.3     1  UNL1        0.0191
     15 C          68.2566   94.0320    9.2673 C.3     1  UNL1        0.0687
     16 N          67.3011   94.8699   10.0642 N.3     1  UNL1       -0.2959
     17 C          66.5391   94.2601   11.2032 C.3     1  UNL1        0.0914
     18 H          66.6096   95.2327    9.4080 H       1  UNL1        0.1233
     19 N          60.6256   90.5905    9.9994 N.am    1  UNL1       -0.3241
     20 C          61.8115   89.7667   10.4053 C.2     1  UNL1        0.2606
     21 O          62.1701   88.5347    9.6284 O.2     1  UNL1       -0.2687
     22 H          60.0826   90.3226    9.2231 H       1  UNL1        0.1453
     23 H          60.3902   91.3991   10.5093 H       1  UNL1        0.1453
     24 C          67.5317   92.9953   14.7041 C.3     1  UNL1        0.0392
     25 C          69.0048   93.0391   14.9835 C.3     1  UNL1        0.0063
     26 C          68.1266   94.1786   15.4081 C.3     1  UNL1        0.0063
@<TRIPOS>BOND
     1    19    20   am
     2    20    21    2
     3    20     1    1
     4     1     2   ar
     5     2     3   ar
     6     3     4    1
     7     3     5   ar
     8     5     6   ar
     9     6     7    1
    10     6     8   ar
    11     8    24    1
    12    24    25    1
    13    25    26    1
    14     8     9   ar
    15    12     9    1
    16    12    13    1
    17    13    14    1
    18    14    15    1
    19    15    16    1
    20    16    17    1
    21     9    10   ar
    22    10    11   ar
    23    11     1   ar
    24    10     5   ar
    25    26    24    1
    26    17    12    1
    27    19    22    1
    28    19    23    1
    29    16    18    1
@<TRIPOS>MOLECULE
*****
 26 29 0 0 0
SMALL
GASTEIGER

@<TRIPOS>ATOM
      1 C          60.8509   86.6548    8.9624 C.ar    1  UNL1        0.1366
      2 C          61.0172   88.1326    9.1582 C.ar    1  UNL1        0.0353
      3 C          61.7855   88.6511   10.3376 C.ar    1  UNL1        0.0630
      4 CL         61.9519   90.1290   10.5334 Cl      1  UNL1       -0.0821
      5 C          62.3875   87.6918   11.3211 C.ar    1  UNL1        0.0564
      6 C          63.1912   87.9064   12.5692 C.ar    1  UNL1        0.0730
      7 CL         63.5939   89.2332   13.1413 Cl      1  UNL1       -0.0810
      8 C          63.5217   86.5611   13.1448 C.ar    1  UNL1        0.0486
      9 N          62.9221   85.5152   12.2524 N.ar    1  UNL1       -0.3160
     10 C          62.2211   86.2140   11.1252 C.ar    1  UNL1        0.1453
     11 N          61.4528   85.6955    9.9459 N.ar    1  UNL1       -0.2236
     12 C          63.0084   84.0310   12.4520 C.3     1  UNL1        0.1023
     13 C          63.8983   83.4684   13.5204 C.3     1  UNL1        0.0254
     14 C          63.9845   81.9843   13.7199 C.3     1  UNL1        0.0191
     15 C          63.1808   81.0628   12.8511 C.3     1  UNL1        0.0687
     16 N          62.2908   81.6254   11.7827 N.3     1  UNL1       -0.2959
     17 C          62.2046   83.1095   11.5832 C.3     1  UNL1        0.0914
     18 H          61.3455   81.3001   11.9855 H       1  UNL1        0.1233
     19 N          58.6876   86.6229    7.5239 N.am    1  UNL1       -0.3241
     20 C          60.0826   86.1363    7.7830 C.2     1  UNL1        0.2606
     21 O          60.7093   85.1312    6.8627 O.2     1  UNL1       -0.2687
     22 H          58.1834   86.2826    6.7499 H       1  UNL1        0.1453
     23 H          58.2762   87.2826    8.1280 H       1  UNL1        0.1453
     24 C          64.3128   86.3066   14.3936 C.3     1  UNL1        0.0392
     25 C          65.6131   85.9711   15.0619 C.3     1  UNL1        0.0063
     26 C          64.3827   86.2014   15.8882 C.3     1  UNL1        0.0063
@<TRIPOS>BOND
     1    19    20   am
     2    20    21    2
     3    20     1    1
     4     1     2   ar
     5     2     3   ar
     6     3     4    1
     7     3     5   ar
     8     5     6   ar
     9     6     7    1
    10     6     8   ar
    11     8    24    1
    12    24    25    1
    13    25    26    1
    14     8     9   ar
    15    12     9    1
    16    12    13    1
    17    13    14    1
    18    14    15    1
    19    15    16    1
    20    16    17    1
    21     9    10   ar
    22    10    11   ar
    23    11     1   ar
    24    10     5   ar
    25    26    24    1
    26    17    12    1
    27    19    22    1
    28    19    23    1
    29    16    18    1
@<TRIPOS>MOLECULE
*****
 26 29 0 0 0
SMALL
GASTEIGER

@<TRIPOS>ATOM
      1 C          61.7848   89.3724   10.5551 C.ar    1  UNL1        0.1366
      2 C          62.3013   90.5369    9.7633 C.ar    1  UNL1        0.0353
      3 C          63.3389   91.4447   10.3543 C.ar    1  UNL1        0.0630
      4 CL         63.8553   92.6093    9.5624 Cl      1  UNL1       -0.0821
      5 C          63.8600   91.1879   11.7372 C.ar    1  UNL1        0.0564
      6 C          64.8755   91.9052   12.5764 C.ar    1  UNL1        0.0730
      7 CL         65.6448   93.1289   12.1754 Cl      1  UNL1       -0.0810
      8 C          64.9867   91.1839   13.8869 C.ar    1  UNL1        0.0486
      9 N          64.0399   90.0209   13.8577 N.ar    1  UNL1       -0.3160
     10 C          63.3436   90.0234   12.5290 C.ar    1  UNL1        0.1453
     11 N          62.3060   89.1156   11.9380 N.ar    1  UNL1       -0.2236
     12 C          63.8268   89.0295   14.9629 C.3     1  UNL1        0.1023
     13 C          63.1984   89.4675   16.2526 C.3     1  UNL1        0.0254
     14 C          62.9853   88.4760   17.3578 C.3     1  UNL1        0.0191
     15 C          63.4007   87.0465   17.1734 C.3     1  UNL1        0.0687
     16 N          64.0291   86.6085   15.8837 N.3     1  UNL1       -0.2959
     17 C          64.2421   87.6000   14.7785 C.3     1  UNL1        0.0914
     18 H          63.4387   85.8678   15.5051 H       1  UNL1        0.1233
     19 N          60.1669   87.3529   10.7869 N.am    1  UNL1       -0.3241
     20 C          60.7472   88.4646    9.9641 C.2     1  UNL1        0.2606
     21 O          60.2899   88.6687    8.5502 O.2     1  UNL1       -0.2687
     22 H          59.4859   86.7571   10.3990 H       1  UNL1        0.1453
     23 H          60.4670   87.2190   11.7150 H       1  UNL1        0.1453
     24 C          65.8867   91.5598   15.0266 C.3     1  UNL1        0.0392
     25 C          67.2441   91.5586   15.6648 C.3     1  UNL1        0.0063
     26 C          66.0880   92.2120   16.3623 C.3     1  UNL1        0.0063
@<TRIPOS>BOND
     1    19    20   am
     2    20    21    2
     3    20     1    1
     4     1     2   ar
     5     2     3   ar
     6     3     4    1
     7     3     5   ar
     8     5     6   ar
     9     6     7    1
    10     6     8   ar
    11     8    24    1
    12    24    25    1
    13    25    26    1
    14     8     9   ar
    15    12     9    1
    16    12    13    1
    17    13    14    1
    18    14    15    1
    19    15    16    1
    20    16    17    1
    21     9    10   ar
    22    10    11   ar
    23    11     1   ar
    24    10     5   ar
    25    26    24    1
    26    17    12    1
    27    19    22    1
    28    19    23    1
    29    16    18    1
