@<TRIPOS>MOLECULE
*****
 32 34 0 0 0
SMALL
GASTEIGER

@<TRIPOS>ATOM
      1 C          64.5371   90.6377   12.9476 C.2     1  UNL1        0.2571
      2 O          63.4843   90.4249   11.9006 O.2     1  UNL1       -0.2695
      3 N          64.9228   89.5135   13.8627 N.am    1  UNL1       -0.2357
      4 C          64.2557   88.1766   13.7308 C.2     1  UNL1        0.3104
      5 O          63.2029   87.9637   12.6837 O.2     1  UNL1       -0.2521
      6 N          64.6415   87.0524   14.6459 N.am    1  UNL1       -0.2680
      7 H          65.6138   89.6532   14.5499 H       1  UNL1        0.1594
      8 H          65.3325   87.1921   15.3331 H       1  UNL1        0.1564
      9 C          65.6866   92.4432   14.4203 C.ar    1  UNL1        0.1461
     10 C          66.3537   93.7802   14.5522 C.ar    1  UNL1        0.0577
     11 C          66.5385   94.6487   13.3432 C.ar    1  UNL1        0.1020
     12 N          66.0561   94.1803   12.0024 N.ar    1  UNL1       -0.2420
     13 C          65.3890   92.8433   11.8706 C.ar    1  UNL1        0.1064
     14 C          65.2043   91.9748   13.0795 C.ar    1  UNL1        0.1068
     15 C          64.2577   91.6975   16.4579 C.3     1  UNL1        0.2525
     16 O          65.5019   91.5747   15.6292 O.3     1  UNL1       -0.4712
     17 C          63.9743   85.7153   14.5140 C.ar    1  UNL1        0.0515
     18 C          63.2471   85.1214   15.6837 C.ar    1  UNL1        0.0147
     19 C          62.5800   83.7844   15.5519 C.ar    1  UNL1        0.0012
     20 C          62.6401   83.0414   14.2502 C.ar    1  UNL1        0.0040
     21 C          63.3673   83.6354   13.0805 C.ar    1  UNL1        0.0727
     22 C          64.0344   84.9724   13.2124 C.ar    1  UNL1        0.0186
     23 C          61.9729   81.7044   14.1183 C.ar    1  UNL1       -0.0000
     24 C          60.4903   81.5838   14.3112 C.ar    1  UNL1       -0.0000
     25 C          59.8231   80.2468   14.1792 C.ar    1  UNL1       -0.0000
     26 C          60.6386   79.0305   13.8545 C.ar    1  UNL1       -0.0000
     27 C          62.1213   79.1511   13.6616 C.ar    1  UNL1       -0.0000
     28 C          62.7884   80.4881   13.7935 C.ar    1  UNL1       -0.0000
     29 C          63.4274   82.8923   11.7788 C.3     1  UNL1        0.4186
     30 F          63.4875   82.1493   10.4772 F       1  UNL1       -0.1659
     31 F          62.0820   83.4396   11.4043 F       1  UNL1       -0.1659
     32 F          64.7728   82.3450   12.1533 F       1  UNL1       -0.1659
@<TRIPOS>BOND
     1    15    16    1
     2    16     9    1
     3     9    10   ar
     4    10    11   ar
     5    11    12   ar
     6    12    13   ar
     7    13    14   ar
     8    14     1    1
     9     1     2    2
    10     1     3   am
    11     3     4   am
    12     4     5    2
    13     4     6   am
    14     6    17    1
    15    17    18   ar
    16    18    19   ar
    17    19    20   ar
    18    20    23    1
    19    23    24   ar
    20    24    25   ar
    21    25    26   ar
    22    26    27   ar
    23    27    28   ar
    24    20    21   ar
    25    21    29    1
    26    29    30    1
    27    29    31    1
    28    29    32    1
    29    21    22   ar
    30    14     9   ar
    31    22    17   ar
    32    28    23   ar
    33     3     7    1
    34     6     8    1
@<TRIPOS>MOLECULE
*****
 32 34 0 0 0
SMALL
GASTEIGER

@<TRIPOS>ATOM
      1 C          64.7085   90.4987   13.6390 C.2     1  UNL1        0.2571
      2 O          63.5822   90.4132   12.6520 O.2     1  UNL1       -0.2695
      3 N          65.1198   89.2827   14.4149 N.am    1  UNL1       -0.2357
      4 C          64.4049   87.9811   14.2038 C.2     1  UNL1        0.3104
      5 O          63.2786   87.8954   13.2167 O.2     1  UNL1       -0.2521
      6 N          64.8162   86.7650   14.9797 N.am    1  UNL1       -0.2680
      7 H          65.8590   89.3389   15.0628 H       1  UNL1        0.1594
      8 H          65.5553   86.8212   15.6276 H       1  UNL1        0.1564
      9 C          65.6786   92.7132   12.6876 C.ar    1  UNL1        0.1461
     10 C          66.3935   94.0148   12.8988 C.ar    1  UNL1        0.0577
     11 C          66.8533   94.4036   14.2726 C.ar    1  UNL1        0.1020
     12 N          66.5982   93.4908   15.4352 N.ar    1  UNL1       -0.2420
     13 C          65.8833   92.1893   15.2240 C.ar    1  UNL1        0.1064
     14 C          65.4234   91.8004   13.8502 C.ar    1  UNL1        0.1068
     15 C          65.9676   92.8079   10.1074 C.3     1  UNL1        0.2525
     16 O          65.2187   92.3244   11.3138 O.3     1  UNL1       -0.4712
     17 C          64.1012   85.4633   14.7685 C.ar    1  UNL1        0.0515
     18 C          63.2364   84.8977   15.8558 C.ar    1  UNL1        0.0147
     19 C          62.5214   83.5961   15.6447 C.ar    1  UNL1        0.0012
     20 C          62.6713   82.8601   14.3463 C.ar    1  UNL1        0.0040
     21 C          63.5361   83.4258   13.2590 C.ar    1  UNL1        0.0727
     22 C          64.2510   84.7274   13.4702 C.ar    1  UNL1        0.0186
     23 C          61.9563   81.5584   14.1352 C.ar    1  UNL1       -0.0000
     24 C          62.7254   80.3387   13.7220 C.ar    1  UNL1       -0.0000
     25 C          62.0105   79.0371   13.5108 C.ar    1  UNL1       -0.0000
     26 C          60.5265   78.9552   13.7128 C.ar    1  UNL1       -0.0000
     27 C          59.7573   80.1749   14.1260 C.ar    1  UNL1       -0.0000
     28 C          60.4722   81.4765   14.3372 C.ar    1  UNL1       -0.0000
     29 C          63.6859   82.6897   11.9606 C.3     1  UNL1        0.4186
     30 F          63.8357   81.9537   10.6622 F       1  UNL1       -0.1659
     31 F          62.3699   83.2401   11.4968 F       1  UNL1       -0.1659
     32 F          65.0019   82.1393   12.4244 F       1  UNL1       -0.1659
@<TRIPOS>BOND
     1    15    16    1
     2    16     9    1
     3     9    10   ar
     4    10    11   ar
     5    11    12   ar
     6    12    13   ar
     7    13    14   ar
     8    14     1    1
     9     1     2    2
    10     1     3   am
    11     3     4   am
    12     4     5    2
    13     4     6   am
    14     6    17    1
    15    17    18   ar
    16    18    19   ar
    17    19    20   ar
    18    20    23    1
    19    23    24   ar
    20    24    25   ar
    21    25    26   ar
    22    26    27   ar
    23    27    28   ar
    24    20    21   ar
    25    21    29    1
    26    29    30    1
    27    29    31    1
    28    29    32    1
    29    21    22   ar
    30    14     9   ar
    31    22    17   ar
    32    28    23   ar
    33     3     7    1
    34     6     8    1
@<TRIPOS>MOLECULE
*****
 32 34 0 0 0
SMALL
GASTEIGER

@<TRIPOS>ATOM
      1 C          63.2225   83.8999   13.5825 C.2     1  UNL1        0.2571
      2 O          64.5238   84.1231   14.2945 O.2     1  UNL1       -0.2695
      3 N          62.5679   85.0299   12.8445 N.am    1  UNL1       -0.2357
      4 C          63.2145   86.3831   12.8185 C.2     1  UNL1        0.3104
      5 O          64.5158   86.6063   13.5305 O.2     1  UNL1       -0.2521
      6 N          62.5599   87.5130   12.0805 N.am    1  UNL1       -0.2680
      7 H          61.7139   84.8834   12.3772 H       1  UNL1        0.1594
      8 H          61.7059   87.3665   11.6132 H       1  UNL1        0.1564
      9 C          63.0918   81.4517   12.7227 C.ar    1  UNL1        0.1461
     10 C          62.4451   80.0985   12.7487 C.ar    1  UNL1        0.0577
     11 C          61.2825   79.8404   13.6606 C.ar    1  UNL1        0.1020
     12 N          60.7665   80.9353   14.5465 N.ar    1  UNL1       -0.2420
     13 C          61.4132   82.2885   14.5204 C.ar    1  UNL1        0.1064
     14 C          62.5758   82.5467   13.6085 C.ar    1  UNL1        0.1068
     15 C          64.0223   82.2761   10.4414 C.3     1  UNL1        0.2525
     16 O          64.2545   81.7099   11.8108 O.3     1  UNL1       -0.4712
     17 C          63.2066   88.8663   12.0545 C.ar    1  UNL1        0.0515
     18 C          63.1203   89.7152   10.8208 C.ar    1  UNL1        0.0147
     19 C          63.7669   91.0684   10.7948 C.ar    1  UNL1        0.0012
     20 C          64.4999   91.5726   12.0024 C.ar    1  UNL1        0.0040
     21 C          64.5862   90.7238   13.2360 C.ar    1  UNL1        0.0727
     22 C          63.9396   89.3706   13.2621 C.ar    1  UNL1        0.0186
     23 C          65.1466   92.9259   11.9763 C.ar    1  UNL1       -0.0000
     24 C          65.8198   93.4592   13.2062 C.ar    1  UNL1       -0.0000
     25 C          66.4664   94.8123   13.1802 C.ar    1  UNL1       -0.0000
     26 C          66.4399   95.6322   11.9244 C.ar    1  UNL1       -0.0000
     27 C          65.7667   95.0989   10.6946 C.ar    1  UNL1       -0.0000
     28 C          65.1201   93.7458   10.7206 C.ar    1  UNL1       -0.0000
     29 C          65.3193   91.2281   14.4437 C.3     1  UNL1        0.4186
     30 F          66.0522   91.7324   15.6513 F       1  UNL1       -0.1659
     31 F          64.0122   91.5789   15.0905 F       1  UNL1       -0.1659
     32 F          66.6264   90.8773   13.7969 F       1  UNL1       -0.1659
@<TRIPOS>BOND
     1    15    16    1
     2    16     9    1
     3     9    10   ar
     4    10    11   ar
     5    11    12   ar
     6    12    13   ar
     7    13    14   ar
     8    14     1    1
     9     1     2    2
    10     1     3   am
    11     3     4   am
    12     4     5    2
    13     4     6   am
    14     6    17    1
    15    17    18   ar
    16    18    19   ar
    17    19    20   ar
    18    20    23    1
    19    23    24   ar
    20    24    25   ar
    21    25    26   ar
    22    26    27   ar
    23    27    28   ar
    24    20    21   ar
    25    21    29    1
    26    29    30    1
    27    29    31    1
    28    29    32    1
    29    21    22   ar
    30    14     9   ar
    31    22    17   ar
    32    28    23   ar
    33     3     7    1
    34     6     8    1
@<TRIPOS>MOLECULE
*****
 32 34 0 0 0
SMALL
GASTEIGER

@<TRIPOS>ATOM
      1 C          60.1022   92.8229    2.5423 C.2     1  UNL1        0.2571
      2 O          61.5745   92.5363    2.5507 O.2     1  UNL1       -0.2695
      3 N          59.2086   92.1872    3.5657 N.am    1  UNL1       -0.2357
      4 C          59.7872   91.2649    4.5974 C.2     1  UNL1        0.3104
      5 O          61.2596   90.9783    4.6058 O.2     1  UNL1       -0.2521
      6 N          58.8936   90.6293    5.6208 N.am    1  UNL1       -0.2680
      7 H          58.2422   92.3753    3.5602 H       1  UNL1        0.1594
      8 H          57.9272   90.8174    5.6153 H       1  UNL1        0.1564
      9 C          59.9492   95.1828    1.4664 C.ar    1  UNL1        0.1461
     10 C          59.3705   96.1050    0.4347 C.ar    1  UNL1        0.0577
     11 C          58.3660   95.5896   -0.5529 C.ar    1  UNL1        0.1020
     12 N          57.9403   94.1520   -0.5088 N.ar    1  UNL1       -0.2420
     13 C          58.5190   93.2298    0.5229 C.ar    1  UNL1        0.1064
     14 C          59.5235   93.7452    1.5105 C.ar    1  UNL1        0.1068
     15 C          62.0771   96.5778    1.9915 C.3     1  UNL1        0.2525
     16 O          60.9537   95.6982    2.4541 O.3     1  UNL1       -0.4712
     17 C          59.4723   89.7070    6.6526 C.ar    1  UNL1        0.0515
     18 C          59.3986   88.2216    6.4566 C.ar    1  UNL1        0.0147
     19 C          59.9772   87.2993    7.4883 C.ar    1  UNL1        0.0012
     20 C          60.6297   87.8624    8.7160 C.ar    1  UNL1        0.0040
     21 C          60.7034   89.3477    8.9120 C.ar    1  UNL1        0.0727
     22 C          60.1247   90.2700    7.8803 C.ar    1  UNL1        0.0186
     23 C          61.2084   86.9400    9.7477 C.ar    1  UNL1       -0.0000
     24 C          60.8337   87.1001   11.1913 C.ar    1  UNL1       -0.0000
     25 C          61.4124   86.1778   12.2231 C.ar    1  UNL1       -0.0000
     26 C          62.3658   85.0956   11.8113 C.ar    1  UNL1       -0.0000
     27 C          62.7405   84.9355   10.3677 C.ar    1  UNL1       -0.0000
     28 C          62.1618   85.8578    9.3359 C.ar    1  UNL1       -0.0000
     29 C          61.3559   89.9107   10.1398 C.3     1  UNL1        0.4186
     30 F          62.0083   90.4736   11.3675 F       1  UNL1       -0.1659
     31 F          60.0157   90.3499   10.6505 F       1  UNL1       -0.1659
     32 F          62.6961   89.4714    9.6290 F       1  UNL1       -0.1659
@<TRIPOS>BOND
     1    15    16    1
     2    16     9    1
     3     9    10   ar
     4    10    11   ar
     5    11    12   ar
     6    12    13   ar
     7    13    14   ar
     8    14     1    1
     9     1     2    2
    10     1     3   am
    11     3     4   am
    12     4     5    2
    13     4     6   am
    14     6    17    1
    15    17    18   ar
    16    18    19   ar
    17    19    20   ar
    18    20    23    1
    19    23    24   ar
    20    24    25   ar
    21    25    26   ar
    22    26    27   ar
    23    27    28   ar
    24    20    21   ar
    25    21    29    1
    26    29    30    1
    27    29    31    1
    28    29    32    1
    29    21    22   ar
    30    14     9   ar
    31    22    17   ar
    32    28    23   ar
    33     3     7    1
    34     6     8    1
@<TRIPOS>MOLECULE
*****
 32 34 0 0 0
SMALL
GASTEIGER

@<TRIPOS>ATOM
      1 C          60.4757   93.1592    2.8971 C.2     1  UNL1        0.2571
      2 O          61.9145   92.7432    2.8169 O.2     1  UNL1       -0.2695
      3 N          59.5711   92.5375    3.9195 N.am    1  UNL1       -0.2357
      4 C          60.1053   91.4998    4.8616 C.2     1  UNL1        0.3104
      5 O          61.5443   91.0837    4.7813 O.2     1  UNL1       -0.2521
      6 N          59.2007   90.8781    5.8839 N.am    1  UNL1       -0.2680
      7 H          58.6267   92.8106    3.9722 H       1  UNL1        0.1594
      8 H          58.2563   91.1512    5.9366 H       1  UNL1        0.1564
      9 C          59.3061   93.7800    0.6617 C.ar    1  UNL1        0.1461
     10 C          58.7718   94.8178   -0.2803 C.ar    1  UNL1        0.0577
     11 C          58.8727   96.2726    0.0710 C.ar    1  UNL1        0.1020
     12 N          59.5079   96.6896    1.3642 N.ar    1  UNL1       -0.2420
     13 C          60.0422   95.6518    2.3063 C.ar    1  UNL1        0.1064
     14 C          59.9413   94.1970    1.9550 C.ar    1  UNL1        0.1068
     15 C          60.3804   91.6167   -0.2952 C.3     1  UNL1        0.2525
     16 O          59.2053   92.3252    0.3105 O.3     1  UNL1       -0.4712
     17 C          59.7351   89.8403    6.8260 C.ar    1  UNL1        0.0515
     18 C          59.5855   88.3837    6.5004 C.ar    1  UNL1        0.0147
     19 C          60.1198   87.3459    7.4425 C.ar    1  UNL1        0.0012
     20 C          60.8037   87.7647    8.7101 C.ar    1  UNL1        0.0040
     21 C          60.9532   89.2213    9.0357 C.ar    1  UNL1        0.0727
     22 C          60.4189   90.2591    8.0936 C.ar    1  UNL1        0.0186
     23 C          61.3380   86.7269    9.6522 C.ar    1  UNL1       -0.0000
     24 C          62.2520   85.6518    9.1436 C.ar    1  UNL1       -0.0000
     25 C          62.7864   84.6140   10.0856 C.ar    1  UNL1       -0.0000
     26 C          62.4067   84.6514   11.5363 C.ar    1  UNL1       -0.0000
     27 C          61.4927   85.7265   12.0449 C.ar    1  UNL1       -0.0000
     28 C          60.9584   86.7642   11.1028 C.ar    1  UNL1       -0.0000
     29 C          61.6372   89.6401   10.3034 C.3     1  UNL1        0.4186
     30 F          62.3211   90.0588   11.5710 F       1  UNL1       -0.1659
     31 F          62.9666   89.2968    9.6995 F       1  UNL1       -0.1659
     32 F          60.3077   89.9833   10.9072 F       1  UNL1       -0.1659
@<TRIPOS>BOND
     1    15    16    1
     2    16     9    1
     3     9    10   ar
     4    10    11   ar
     5    11    12   ar
     6    12    13   ar
     7    13    14   ar
     8    14     1    1
     9     1     2    2
    10     1     3   am
    11     3     4   am
    12     4     5    2
    13     4     6   am
    14     6    17    1
    15    17    18   ar
    16    18    19   ar
    17    19    20   ar
    18    20    23    1
    19    23    24   ar
    20    24    25   ar
    21    25    26   ar
    22    26    27   ar
    23    27    28   ar
    24    20    21   ar
    25    21    29    1
    26    29    30    1
    27    29    31    1
    28    29    32    1
    29    21    22   ar
    30    14     9   ar
    31    22    17   ar
    32    28    23   ar
    33     3     7    1
    34     6     8    1
@<TRIPOS>MOLECULE
*****
 32 34 0 0 0
SMALL
GASTEIGER

@<TRIPOS>ATOM
      1 C          62.8450   85.1833   12.7419 C.2     1  UNL1        0.2571
      2 O          62.5869   85.5305   11.3057 O.2     1  UNL1       -0.2695
      3 N          63.4419   86.2042   13.6647 N.am    1  UNL1       -0.2357
      4 C          63.7807   87.5722   13.1512 C.2     1  UNL1        0.3104
      5 O          63.5226   87.9194   11.7149 O.2     1  UNL1       -0.2521
      6 N          64.3776   88.5931   14.0740 N.am    1  UNL1       -0.2680
      7 H          63.6113   85.9763   14.6074 H       1  UNL1        0.1594
      8 H          64.5471   88.3652   15.0167 H       1  UNL1        0.1564
      9 C          62.5584   82.6337   12.3329 C.ar    1  UNL1        0.1461
     10 C          62.2196   81.2657   12.8465 C.ar    1  UNL1        0.0577
     11 C          61.8286   81.0793   14.2826 C.ar    1  UNL1        0.1020
     12 N          61.7764   82.2608   15.2051 N.ar    1  UNL1       -0.2420
     13 C          62.1152   83.6288   14.6916 C.ar    1  UNL1        0.1064
     14 C          62.5062   83.8152   13.2555 C.ar    1  UNL1        0.1068
     15 C          64.3698   82.5943   10.4708 C.3     1  UNL1        0.2525
     16 O          62.9494   82.8201   10.8968 O.3     1  UNL1       -0.4712
     17 C          64.7165   89.9612   13.5605 C.ar    1  UNL1        0.0515
     18 C          63.9242   90.5572   12.4348 C.ar    1  UNL1        0.0147
     19 C          64.2629   91.9252   11.9213 C.ar    1  UNL1        0.0012
     20 C          65.3939   92.6972   12.5334 C.ar    1  UNL1        0.0040
     21 C          66.1862   92.1012   13.6590 C.ar    1  UNL1        0.0727
     22 C          65.8475   90.7332   14.1726 C.ar    1  UNL1        0.0186
     23 C          65.7327   94.0653   12.0198 C.ar    1  UNL1       -0.0000
     24 C          65.6343   94.3612   10.5526 C.ar    1  UNL1       -0.0000
     25 C          65.9731   95.7292   10.0391 C.ar    1  UNL1       -0.0000
     26 C          66.4103   96.8012   10.9927 C.ar    1  UNL1       -0.0000
     27 C          66.5087   96.5053   12.4599 C.ar    1  UNL1       -0.0000
     28 C          66.1700   95.1373   12.9735 C.ar    1  UNL1       -0.0000
     29 C          67.3173   92.8733   14.2712 C.3     1  UNL1        0.4186
     30 F          68.4483   93.6453   14.8832 F       1  UNL1       -0.1659
     31 F          68.2402   92.3690   13.2017 F       1  UNL1       -0.1659
     32 F          66.3943   93.3776   15.3407 F       1  UNL1       -0.1659
@<TRIPOS>BOND
     1    15    16    1
     2    16     9    1
     3     9    10   ar
     4    10    11   ar
     5    11    12   ar
     6    12    13   ar
     7    13    14   ar
     8    14     1    1
     9     1     2    2
    10     1     3   am
    11     3     4   am
    12     4     5    2
    13     4     6   am
    14     6    17    1
    15    17    18   ar
    16    18    19   ar
    17    19    20   ar
    18    20    23    1
    19    23    24   ar
    20    24    25   ar
    21    25    26   ar
    22    26    27   ar
    23    27    28   ar
    24    20    21   ar
    25    21    29    1
    26    29    30    1
    27    29    31    1
    28    29    32    1
    29    21    22   ar
    30    14     9   ar
    31    22    17   ar
    32    28    23   ar
    33     3     7    1
    34     6     8    1
@<TRIPOS>MOLECULE
*****
 32 34 0 0 0
SMALL
GASTEIGER

@<TRIPOS>ATOM
      1 C          62.8099   85.2068   12.5198 C.2     1  UNL1        0.2571
      2 O          62.6467   85.5351   11.0654 O.2     1  UNL1       -0.2695
      3 N          63.3394   86.2419   13.4675 N.am    1  UNL1       -0.2357
      4 C          63.7058   87.6053   12.9608 C.2     1  UNL1        0.3104
      5 O          63.5426   87.9337   11.5062 O.2     1  UNL1       -0.2521
      6 N          64.2353   88.6405   13.9085 N.am    1  UNL1       -0.2680
      7 H          63.4465   86.0265   14.4222 H       1  UNL1        0.1594
      8 H          64.3424   88.4250   14.8631 H       1  UNL1        0.1564
      9 C          61.9921   83.6672   14.4462 C.ar    1  UNL1        0.1461
     10 C          61.6257   82.3038   14.9530 C.ar    1  UNL1        0.0577
     11 C          61.7109   81.1165   14.0402 C.ar    1  UNL1        0.1020
     12 N          62.1624   81.2927   12.6207 N.ar    1  UNL1       -0.2420
     13 C          62.5287   82.6561   12.1139 C.ar    1  UNL1        0.1064
     14 C          62.4436   83.8434   13.0267 C.ar    1  UNL1        0.1068
     15 C          62.7789   84.9281   16.5772 C.3     1  UNL1        0.2525
     16 O          61.9069   84.8545   15.3590 O.3     1  UNL1       -0.4712
     17 C          64.6016   90.0039   13.4016 C.ar    1  UNL1        0.0515
     18 C          63.8496   90.6031   12.2504 C.ar    1  UNL1        0.0147
     19 C          64.2159   91.9665   11.7435 C.ar    1  UNL1        0.0012
     20 C          65.3342   92.7307   12.3879 C.ar    1  UNL1        0.0040
     21 C          66.0863   92.1315   13.5392 C.ar    1  UNL1        0.0727
     22 C          65.7200   90.7681   14.0460 C.ar    1  UNL1        0.0186
     23 C          65.7006   94.0942   11.8811 C.ar    1  UNL1       -0.0000
     24 C          65.6983   94.3719   10.4070 C.ar    1  UNL1       -0.0000
     25 C          66.0646   95.7353    9.9002 C.ar    1  UNL1       -0.0000
     26 C          66.4332   96.8209   10.8674 C.ar    1  UNL1       -0.0000
     27 C          66.4356   96.5432   12.3414 C.ar    1  UNL1       -0.0000
     28 C          66.0692   95.1798   12.8483 C.ar    1  UNL1       -0.0000
     29 C          67.2047   92.8958   14.1836 C.3     1  UNL1        0.4186
     30 F          68.3230   93.6600   14.8280 F       1  UNL1       -0.1659
     31 F          66.2553   93.4049   15.2274 F       1  UNL1       -0.1659
     32 F          68.1540   92.3867   13.1398 F       1  UNL1       -0.1659
@<TRIPOS>BOND
     1    15    16    1
     2    16     9    1
     3     9    10   ar
     4    10    11   ar
     5    11    12   ar
     6    12    13   ar
     7    13    14   ar
     8    14     1    1
     9     1     2    2
    10     1     3   am
    11     3     4   am
    12     4     5    2
    13     4     6   am
    14     6    17    1
    15    17    18   ar
    16    18    19   ar
    17    19    20   ar
    18    20    23    1
    19    23    24   ar
    20    24    25   ar
    21    25    26   ar
    22    26    27   ar
    23    27    28   ar
    24    20    21   ar
    25    21    29    1
    26    29    30    1
    27    29    31    1
    28    29    32    1
    29    21    22   ar
    30    14     9   ar
    31    22    17   ar
    32    28    23   ar
    33     3     7    1
    34     6     8    1
@<TRIPOS>MOLECULE
*****
 32 34 0 0 0
SMALL
GASTEIGER

@<TRIPOS>ATOM
      1 C          65.0040   92.5737   11.4786 C.2     1  UNL1        0.2571
      2 O          64.5559   92.0158   10.1603 O.2     1  UNL1       -0.2695
      3 N          65.0012   91.7041   12.7009 N.am    1  UNL1       -0.2357
      4 C          64.5503   90.2768   12.6049 C.2     1  UNL1        0.3104
      5 O          64.1021   89.7189   11.2865 O.2     1  UNL1       -0.2521
      6 N          64.5475   89.4073   13.8271 N.am    1  UNL1       -0.2680
      7 H          65.2953   92.0703   13.5662 H       1  UNL1        0.1594
      8 H          64.8416   89.7734   14.6924 H       1  UNL1        0.1564
      9 C          66.0487   94.5157   12.8525 C.ar    1  UNL1        0.1461
     10 C          66.4997   95.9430   12.9485 C.ar    1  UNL1        0.0577
     11 C          66.3569   96.8558   11.7668 C.ar    1  UNL1        0.1020
     12 N          65.7632   96.3412   10.4890 N.ar    1  UNL1       -0.2420
     13 C          65.3122   94.9139   10.3930 C.ar    1  UNL1        0.1064
     14 C          65.4550   94.0011   11.5747 C.ar    1  UNL1        0.1068
     15 C          67.4944   93.5319   14.7739 C.3     1  UNL1        0.2525
     16 O          66.1915   93.6029   14.0342 O.3     1  UNL1       -0.4712
     17 C          64.0965   87.9799   13.7311 C.ar    1  UNL1        0.0515
     18 C          64.4284   87.0130   14.8288 C.ar    1  UNL1        0.0147
     19 C          63.9774   85.5856   14.7328 C.ar    1  UNL1        0.0012
     20 C          63.1946   85.1251   13.5390 C.ar    1  UNL1        0.0040
     21 C          62.8627   86.0920   12.4413 C.ar    1  UNL1        0.0727
     22 C          63.3137   87.5194   12.5373 C.ar    1  UNL1        0.0186
     23 C          62.7437   83.6977   13.4429 C.ar    1  UNL1       -0.0000
     24 C          61.8407   83.1241   14.4944 C.ar    1  UNL1       -0.0000
     25 C          61.3897   81.6967   14.3984 C.ar    1  UNL1       -0.0000
     26 C          61.8417   80.8430   13.2509 C.ar    1  UNL1       -0.0000
     27 C          62.7447   81.4167   12.1994 C.ar    1  UNL1       -0.0000
     28 C          63.1957   82.8440   12.2954 C.ar    1  UNL1       -0.0000
     29 C          62.0799   85.6315   11.2475 C.3     1  UNL1        0.4186
     30 F          61.2970   85.1709   10.0537 F       1  UNL1       -0.1659
     31 F          60.8319   86.2149   11.8408 F       1  UNL1       -0.1659
     32 F          63.3279   85.0480   10.6541 F       1  UNL1       -0.1659
@<TRIPOS>BOND
     1    15    16    1
     2    16     9    1
     3     9    10   ar
     4    10    11   ar
     5    11    12   ar
     6    12    13   ar
     7    13    14   ar
     8    14     1    1
     9     1     2    2
    10     1     3   am
    11     3     4   am
    12     4     5    2
    13     4     6   am
    14     6    17    1
    15    17    18   ar
    16    18    19   ar
    17    19    20   ar
    18    20    23    1
    19    23    24   ar
    20    24    25   ar
    21    25    26   ar
    22    26    27   ar
    23    27    28   ar
    24    20    21   ar
    25    21    29    1
    26    29    30    1
    27    29    31    1
    28    29    32    1
    29    21    22   ar
    30    14     9   ar
    31    22    17   ar
    32    28    23   ar
    33     3     7    1
    34     6     8    1
@<TRIPOS>MOLECULE
*****
 32 34 0 0 0
SMALL
GASTEIGER

@<TRIPOS>ATOM
      1 C          59.6152   89.5821    7.1358 C.2     1  UNL1        0.2571
      2 O          58.2036   89.5484    6.6297 O.2     1  UNL1       -0.2695
      3 N          60.6779   90.2887    6.3475 N.am    1  UNL1       -0.2357
      4 C          60.3290   90.9616    5.0531 C.2     1  UNL1        0.3104
      5 O          58.9173   90.9279    4.5470 O.2     1  UNL1       -0.2521
      6 N          61.3917   91.6682    4.2649 N.am    1  UNL1       -0.2680
      7 H          61.6044   90.3109    6.6797 H       1  UNL1        0.1594
      8 H          62.3182   91.6904    4.5970 H       1  UNL1        0.1564
      9 C          60.1764   87.4248    8.4705 C.ar    1  UNL1        0.1461
     10 C          60.5254   86.7520    9.7649 C.ar    1  UNL1        0.0577
     11 C          60.6621   87.5635   11.0190 C.ar    1  UNL1        0.1020
     12 N          60.4500   89.0479   10.9787 N.ar    1  UNL1       -0.2420
     13 C          60.1010   89.7207    9.6843 C.ar    1  UNL1        0.1064
     14 C          59.9642   88.9092    8.4302 C.ar    1  UNL1        0.1068
     15 C          60.8739   85.3816    7.0254 C.3     1  UNL1        0.2525
     16 O          60.0396   86.6133    7.2164 O.3     1  UNL1       -0.4712
     17 C          61.0427   92.3411    2.9704 C.ar    1  UNL1        0.0515
     18 C          59.6204   92.7205    2.6820 C.ar    1  UNL1        0.0147
     19 C          59.2714   93.3934    1.3877 C.ar    1  UNL1        0.0012
     20 C          60.3447   93.6869    0.3817 C.ar    1  UNL1        0.0040
     21 C          61.7669   93.3075    0.6702 C.ar    1  UNL1        0.0727
     22 C          62.1160   92.6346    1.9645 C.ar    1  UNL1        0.0186
     23 C          59.9957   94.3598   -0.9127 C.ar    1  UNL1       -0.0000
     24 C          59.4960   93.5466   -2.0698 C.ar    1  UNL1       -0.0000
     25 C          59.1470   94.2194   -3.3642 C.ar    1  UNL1       -0.0000
     26 C          59.2977   95.7055   -3.5014 C.ar    1  UNL1       -0.0000
     27 C          59.7974   96.5187   -2.3443 C.ar    1  UNL1       -0.0000
     28 C          60.1464   95.8459   -1.0499 C.ar    1  UNL1       -0.0000
     29 C          62.8402   93.6011   -0.3358 C.3     1  UNL1        0.4186
     30 F          63.9135   93.8946   -1.3417 F       1  UNL1       -0.1659
     31 F          63.3171   94.7464    0.5072 F       1  UNL1       -0.1659
     32 F          62.3634   92.4557   -1.1788 F       1  UNL1       -0.1659
@<TRIPOS>BOND
     1    15    16    1
     2    16     9    1
     3     9    10   ar
     4    10    11   ar
     5    11    12   ar
     6    12    13   ar
     7    13    14   ar
     8    14     1    1
     9     1     2    2
    10     1     3   am
    11     3     4   am
    12     4     5    2
    13     4     6   am
    14     6    17    1
    15    17    18   ar
    16    18    19   ar
    17    19    20   ar
    18    20    23    1
    19    23    24   ar
    20    24    25   ar
    21    25    26   ar
    22    26    27   ar
    23    27    28   ar
    24    20    21   ar
    25    21    29    1
    26    29    30    1
    27    29    31    1
    28    29    32    1
    29    21    22   ar
    30    14     9   ar
    31    22    17   ar
    32    28    23   ar
    33     3     7    1
    34     6     8    1
