@<TRIPOS>MOLECULE
*****
 42 46 0 0 0
SMALL
GASTEIGER

@<TRIPOS>ATOM
      1 C          62.8703   85.6870   12.3363 C.ar    1  UNL1        0.0000
      2 C          63.2676   84.7390   13.4287 C.ar    1  UNL1        0.0000
      3 O          64.0051   85.5206   14.4752 O.2     1  UNL1        0.0000
      4 C          64.0636   86.9517   14.0296 C.ar    1  UNL1        0.0000
      5 C          64.6648   88.1744   14.6568 C.ar    1  UNL1        0.0000
      6 C          64.5647   89.5000   13.9620 C.ar    1  UNL1        0.0000
      7 C          63.8634   89.6028   12.6401 C.ar    1  UNL1        0.0000
      8 C          63.2621   88.3801   12.0129 C.ar    1  UNL1        0.0000
      9 C          63.3622   87.0545   12.7077 C.ar    1  UNL1        0.0000
     10 C          62.9783   83.2676   13.4677 C.ar    1  UNL1        0.0000
     11 C          61.8246   82.7513   14.2754 C.ar    1  UNL1        0.0000
     12 C          61.5352   81.2800   14.3144 C.ar    1  UNL1        0.0000
     13 C          62.3995   80.3250   13.5458 C.ar    1  UNL1        0.0000
     14 F          62.1102   78.8537   13.5848 F       1  UNL1        0.0000
     15 C          63.5532   80.8413   12.7381 C.ar    1  UNL1        0.0000
     16 C          63.8426   82.3126   12.6991 C.ar    1  UNL1        0.0000
     17 C          60.4826   85.9947    9.1812 C.3     1  UNL1        0.0000
     18 N          61.2390   86.3515   10.4264 N.am    1  UNL1        0.0000
     19 C          62.1138   85.3302   11.0911 C.2     1  UNL1        0.0000
     20 O          62.2321   83.9523   10.5106 O.2     1  UNL1        0.0000
     21 H          61.1614   87.2560   10.8074 H       1  UNL1        0.0000
     22 C          63.7633   90.9285   11.9453 C.3     1  UNL1        0.0000
     23 C          63.8604   91.7499   10.6940 C.3     1  UNL1        0.0000
     24 C          63.4929   92.4032   11.9933 C.3     1  UNL1        0.0000
     25 N          65.1660   90.7228   14.5892 N.pl3   1  UNL1        0.0000
     26 S          64.4206   91.4588   15.6627 S.O2    1  UNL1        0.0000
     27 C          63.6751   92.1948   16.7364 C.3     1  UNL1        0.0000
     28 O          63.1643   90.7284   15.2911 O.2     1  UNL1        0.0000
     29 O          65.6769   92.1892   16.0344 O.2     1  UNL1        0.0000
     30 C          66.5128   91.2096   14.1427 C.3     1  UNL1        0.0000
     31 C          66.6190   92.1899   13.0124 C.ar    1  UNL1        0.0000
     32 C          66.1684   93.6077   13.2044 C.ar    1  UNL1        0.0000
     33 C          66.2748   94.5880   12.0740 C.ar    1  UNL1        0.0000
     34 C          66.8317   94.1506   10.7517 C.ar    1  UNL1        0.0000
     35 C          67.2823   92.7328   10.5597 C.ar    1  UNL1        0.0000
     36 F          67.8392   92.2954    9.2375 F       1  UNL1        0.0000
     37 C          67.1760   91.7525   11.6900 C.ar    1  UNL1        0.0000
     38 B          66.9380   95.1309    9.6214 B       1  UNL1        0.0000
     39 O          68.2814   95.4710    9.0474 O.3     1  UNL1        0.0000
     40 O          65.7008   95.7712    9.0651 O.3     1  UNL1        0.0000
     41 H          68.9691   94.9738    9.5174 H       1  UNL1        0.0000
     42 H          64.9238   95.4445    9.5451 H       1  UNL1        0.0000
@<TRIPOS>BOND
     1    17    18    1
     2    18    19   am
     3    19    20    2
     4    19     1    1
     5     1     2   ar
     6     2    10    1
     7    10    11   ar
     8    11    12   ar
     9    12    13   ar
    10    13    14    1
    11    13    15   ar
    12    15    16   ar
    13     2     3   ar
    14     3     4   ar
    15     4     5   ar
    16     5     6   ar
    17     6    25    1
    18    25    30    1
    19    30    31    1
    20    31    32   ar
    21    32    33   ar
    22    33    34   ar
    23    34    38    1
    24    38    39    1
    25    38    40    1
    26    34    35   ar
    27    35    36    1
    28    35    37   ar
    29    25    26    1
    30    26    27    1
    31    26    28    2
    32    26    29    2
    33     6     7   ar
    34     7    22    1
    35    22    23    1
    36    23    24    1
    37     7     8   ar
    38     8     9   ar
    39     9     1   ar
    40    16    10   ar
    41     9     4   ar
    42    37    31   ar
    43    24    22    1
    44    18    21    1
    45    39    41    1
    46    40    42    1
@<TRIPOS>MOLECULE
*****
 42 46 0 0 0
SMALL
GASTEIGER

@<TRIPOS>ATOM
      1 C          61.0786   86.5624    8.6341 C.ar    1  UNL1        0.0000
      2 C          60.7152   88.0127    8.7545 C.ar    1  UNL1        0.0000
      3 O          61.1497   88.4884   10.1091 O.2     1  UNL1        0.0000
      4 C          61.7816   87.3321   10.8258 C.ar    1  UNL1        0.0000
      5 C          62.3913   87.2094   12.1908 C.ar    1  UNL1        0.0000
      6 C          62.9571   85.8963   12.6441 C.ar    1  UNL1        0.0000
      7 C          62.9131   84.7059   11.7324 C.ar    1  UNL1        0.0000
      8 C          62.3034   84.8286   10.3675 C.ar    1  UNL1        0.0000
      9 C          61.7376   86.1418    9.9142 C.ar    1  UNL1        0.0000
     10 C          60.0365   88.8418    7.7047 C.ar    1  UNL1        0.0000
     11 C          58.5734   88.6554    7.4317 C.ar    1  UNL1        0.0000
     12 C          57.8947   89.4844    6.3819 C.ar    1  UNL1        0.0000
     13 C          58.6791   90.4998    5.6051 C.ar    1  UNL1        0.0000
     14 F          58.0004   91.3289    4.5553 F       1  UNL1        0.0000
     15 C          60.1422   90.6862    5.8780 C.ar    1  UNL1        0.0000
     16 C          60.8209   89.8572    6.9278 C.ar    1  UNL1        0.0000
     17 C          61.7250   84.1470    5.5521 C.3     1  UNL1        0.0000
     18 N          61.9765   85.0230    6.7435 N.am    1  UNL1        0.0000
     19 C          60.8270   85.6864    7.4426 C.2     1  UNL1        0.0000
     20 O          59.4263   85.4739    6.9503 O.2     1  UNL1        0.0000
     21 H          62.8959   85.1625    7.0666 H       1  UNL1        0.0000
     22 C          63.4789   83.3927   12.1858 C.3     1  UNL1        0.0000
     23 C          63.2765   82.0086   12.7274 C.3     1  UNL1        0.0000
     24 C          64.6612   82.5023   12.4295 C.3     1  UNL1        0.0000
     25 N          63.5668   85.7734   14.0091 N.pl3   1  UNL1        0.0000
     26 S          63.0470   84.7488   14.9733 S.O2    1  UNL1        0.0000
     27 C          62.5271   83.7241   15.9376 C.3     1  UNL1        0.0000
     28 O          61.6400   85.1246   14.6141 O.2     1  UNL1        0.0000
     29 O          64.4540   84.3730   15.3326 O.2     1  UNL1        0.0000
     30 C          64.6964   86.6753   14.4098 C.3     1  UNL1        0.0000
     31 C          64.4068   88.0322   14.9798 C.ar    1  UNL1        0.0000
     32 C          63.5678   88.1627   16.2163 C.ar    1  UNL1        0.0000
     33 C          63.2782   89.5197   16.7864 C.ar    1  UNL1        0.0000
     34 C          63.8276   90.7460   16.1199 C.ar    1  UNL1        0.0000
     35 C          64.6667   90.6155   14.8834 C.ar    1  UNL1        0.0000
     36 F          65.2161   91.8418   14.2169 F       1  UNL1        0.0000
     37 C          64.9563   89.2586   14.3134 C.ar    1  UNL1        0.0000
     38 B          63.5380   92.1029   16.6900 B       1  UNL1        0.0000
     39 O          64.6628   92.9672   17.1776 O.3     1  UNL1        0.0000
     40 O          62.1236   92.5955   16.7723 O.3     1  UNL1        0.0000
     41 H          65.5051   92.5025   17.0531 H       1  UNL1        0.0000
     42 H          61.5247   91.9198   16.4178 H       1  UNL1        0.0000
@<TRIPOS>BOND
     1    17    18    1
     2    18    19   am
     3    19    20    2
     4    19     1    1
     5     1     2   ar
     6     2    10    1
     7    10    11   ar
     8    11    12   ar
     9    12    13   ar
    10    13    14    1
    11    13    15   ar
    12    15    16   ar
    13     2     3   ar
    14     3     4   ar
    15     4     5   ar
    16     5     6   ar
    17     6    25    1
    18    25    30    1
    19    30    31    1
    20    31    32   ar
    21    32    33   ar
    22    33    34   ar
    23    34    38    1
    24    38    39    1
    25    38    40    1
    26    34    35   ar
    27    35    36    1
    28    35    37   ar
    29    25    26    1
    30    26    27    1
    31    26    28    2
    32    26    29    2
    33     6     7   ar
    34     7    22    1
    35    22    23    1
    36    23    24    1
    37     7     8   ar
    38     8     9   ar
    39     9     1   ar
    40    16    10   ar
    41     9     4   ar
    42    37    31   ar
    43    24    22    1
    44    18    21    1
    45    39    41    1
    46    40    42    1
