@<TRIPOS>MOLECULE
*****
 33 35 0 0 0
SMALL
GASTEIGER

@<TRIPOS>ATOM
      1 C          60.8046   89.4895    9.9976 C.ar    1  UNL1        0.1346
      2 C          59.9814   88.4541    9.2903 C.ar    1  UNL1        0.0363
      3 C          60.5922   87.1352    8.9196 C.ar    1  UNL1       -0.0008
      4 C          62.0261   86.8516    9.2563 C.ar    1  UNL1       -0.0179
      5 C          62.8493   87.8870    9.9636 C.ar    1  UNL1       -0.0051
      6 C          62.2385   89.2059   10.3343 C.ar    1  UNL1        0.0136
      7 C          63.0618   90.2413   11.0417 C.3     1  UNL1        0.0548
      8 C          63.8103   91.2730   10.2510 C.3     1  UNL1        0.0120
      9 C          64.6335   92.3083   10.9583 C.3     1  UNL1        0.0591
     10 C          64.7082   92.3120   12.4565 C.3     1  UNL1        0.1420
     11 O          65.5315   93.3473   13.1638 O.3     1  UNL1       -0.3818
     12 C          63.9598   91.2802   13.2472 C.3     1  UNL1        0.1642
     13 O          64.0345   91.2838   14.7453 O.3     1  UNL1       -0.3795
     14 C          63.1365   90.2449   12.5398 C.3     1  UNL1        0.1436
     15 O          62.3880   89.2131   13.3306 O.3     1  UNL1       -0.3816
     16 H          65.9461   93.9323   12.5106 H       1  UNL1        0.2104
     17 H          63.4974   90.5570   15.0976 H       1  UNL1        0.2105
     18 H          62.5428   89.3565   14.2774 H       1  UNL1        0.2105
     19 C          65.3819   93.3400   10.1675 C.3     1  UNL1        0.1396
     20 O          65.2203   94.7957   10.4912 O.3     1  UNL1       -0.3819
     21 H          64.3107   95.0710   10.2972 H       1  UNL1        0.2104
     22 O          60.1939   90.8084   10.3683 O.3     1  UNL1       -0.4758
     23 C          59.0606   89.7205   12.4377 C.3     1  UNL1        0.0512
     24 C          59.2387   90.8949   11.5217 C.3     1  UNL1        0.2055
     25 C          62.6369   85.5327    8.8856 C.3     1  UNL1        0.0526
     26 C          62.9695   84.5336    9.9538 C.ar    1  UNL1       -0.0178
     27 C          62.3421   84.6500   11.3113 C.ar    1  UNL1       -0.0043
     28 C          62.6748   83.6508   12.3795 C.ar    1  UNL1       -0.0046
     29 C          63.6349   82.5353   12.0902 C.ar    1  UNL1       -0.0222
     30 C          64.2623   82.4188   10.7327 C.ar    1  UNL1       -0.0046
     31 C          63.9297   83.4180    9.6645 C.ar    1  UNL1       -0.0043
     32 C          63.9675   81.5361   13.1584 C.3     1  UNL1        0.0264
     33 C          62.9041   80.6181   13.6841 C.3     1  UNL1        0.0050
@<TRIPOS>BOND
     1    23    24    1
     2    24    22    1
     3    22     1    1
     4     1     2   ar
     5     2     3   ar
     6     3     4   ar
     7     4    25    1
     8    25    26    1
     9    26    27   ar
    10    27    28   ar
    11    28    29   ar
    12    29    32    1
    13    32    33    1
    14    29    30   ar
    15    30    31   ar
    16     4     5   ar
    17     5     6   ar
    18     7     6    1
    19     7     8    1
    20     8     9    1
    21     9    19    1
    22    19    20    1
    23     9    10    1
    24    10    11    1
    25    10    12    1
    26    12    13    1
    27    12    14    1
    28    14    15    1
    29     6     1   ar
    30    14     7    1
    31    31    26   ar
    32    20    21    1
    33    11    16    1
    34    13    17    1
    35    15    18    1
@<TRIPOS>MOLECULE
*****
 33 35 0 0 0
SMALL
GASTEIGER

@<TRIPOS>ATOM
      1 C          60.9070   89.4898   10.0941 C.ar    1  UNL1        0.1346
      2 C          60.1664   88.6168    9.1249 C.ar    1  UNL1        0.0363
      3 C          60.7350   87.2868    8.7275 C.ar    1  UNL1       -0.0008
      4 C          62.0443   86.8299    9.2993 C.ar    1  UNL1       -0.0179
      5 C          62.7849   87.7029   10.2685 C.ar    1  UNL1       -0.0051
      6 C          62.2163   89.0328   10.6659 C.ar    1  UNL1        0.0136
      7 C          62.9570   89.9058   11.6351 C.3     1  UNL1        0.0548
      8 C          63.0131   89.5345   13.0873 C.3     1  UNL1        0.0120
      9 C          63.7538   90.4074   14.0565 C.3     1  UNL1        0.0591
     10 C          64.4383   91.6517   13.5735 C.3     1  UNL1        0.1420
     11 O          65.1790   92.5246   14.5427 O.3     1  UNL1       -0.3818
     12 C          64.3822   92.0230   12.1213 C.3     1  UNL1        0.1642
     13 O          65.0667   93.2672   11.6382 O.3     1  UNL1       -0.3795
     14 C          63.6415   91.1500   11.1520 C.3     1  UNL1        0.1436
     15 O          63.5853   91.5213    9.6998 O.3     1  UNL1       -0.3816
     16 H          65.1174   92.1441   15.4328 H       1  UNL1        0.2104
     17 H          64.9337   93.3588   10.6818 H       1  UNL1        0.2105
     18 H          64.0749   92.3466    9.5579 H       1  UNL1        0.2105
     19 C          63.8099   90.0362   15.5088 C.3     1  UNL1        0.1396
     20 O          63.4261   91.0402   16.5550 O.3     1  UNL1       -0.3819
     21 H          64.0628   91.7720   16.5498 H       1  UNL1        0.2104
     22 O          60.3384   90.8197   10.4915 O.3     1  UNL1       -0.4758
     23 C          59.0444   89.7093   12.4517 C.3     1  UNL1        0.0512
     24 C          59.3083   90.9003   11.5788 C.3     1  UNL1        0.2055
     25 C          62.6129   85.4999    8.9019 C.3     1  UNL1        0.0526
     26 C          62.9491   84.4838    9.9528 C.ar    1  UNL1       -0.0178
     27 C          63.9235   83.3846    9.6487 C.ar    1  UNL1       -0.0043
     28 C          64.2597   82.3684   10.6996 C.ar    1  UNL1       -0.0046
     29 C          63.6216   82.4514   12.0545 C.ar    1  UNL1       -0.0222
     30 C          62.6472   83.5505   12.3586 C.ar    1  UNL1       -0.0046
     31 C          62.3110   84.5668   11.3077 C.ar    1  UNL1       -0.0043
     32 C          63.9578   81.4352   13.1054 C.3     1  UNL1        0.0264
     33 C          62.8789   80.5667   13.6813 C.3     1  UNL1        0.0050
@<TRIPOS>BOND
     1    23    24    1
     2    24    22    1
     3    22     1    1
     4     1     2   ar
     5     2     3   ar
     6     3     4   ar
     7     4    25    1
     8    25    26    1
     9    26    27   ar
    10    27    28   ar
    11    28    29   ar
    12    29    32    1
    13    32    33    1
    14    29    30   ar
    15    30    31   ar
    16     4     5   ar
    17     5     6   ar
    18     7     6    1
    19     7     8    1
    20     8     9    1
    21     9    19    1
    22    19    20    1
    23     9    10    1
    24    10    11    1
    25    10    12    1
    26    12    13    1
    27    12    14    1
    28    14    15    1
    29     6     1   ar
    30    14     7    1
    31    31    26   ar
    32    20    21    1
    33    11    16    1
    34    13    17    1
    35    15    18    1
@<TRIPOS>MOLECULE
*****
 33 35 0 0 0
SMALL
GASTEIGER

@<TRIPOS>ATOM
      1 C          61.1630   86.8167    9.4012 C.ar    1  UNL1        0.1346
      2 C          60.6235   88.0904    8.8212 C.ar    1  UNL1        0.0363
      3 C          60.9428   89.4044    9.4704 C.ar    1  UNL1       -0.0008
      4 C          61.8015   89.4447   10.6996 C.ar    1  UNL1       -0.0179
      5 C          62.3410   88.1709   11.2796 C.ar    1  UNL1       -0.0051
      6 C          62.0217   86.8569   10.6304 C.ar    1  UNL1        0.0136
      7 C          62.5612   85.5831   11.2104 C.3     1  UNL1        0.0548
      8 C          62.3306   85.2610   12.6572 C.3     1  UNL1        0.0120
      9 C          62.8700   83.9873   13.2372 C.3     1  UNL1        0.0591
     10 C          63.6402   83.0355   12.3706 C.3     1  UNL1        0.1420
     11 O          64.1797   81.7618   12.9506 O.3     1  UNL1       -0.3818
     12 C          63.8709   83.3576   10.9238 C.3     1  UNL1        0.1642
     13 O          64.6410   82.4059   10.0571 O.3     1  UNL1       -0.3795
     14 C          63.3313   84.6314   10.3437 C.3     1  UNL1        0.1436
     15 O          63.5620   84.9535    8.8970 O.3     1  UNL1       -0.3816
     16 H          63.9437   81.7089   13.8900 H       1  UNL1        0.2104
     17 H          64.6983   82.7625    9.1569 H       1  UNL1        0.2105
     18 H          64.0727   84.2395    8.4843 H       1  UNL1        0.2105
     19 C          62.6394   83.6652   14.6840 C.3     1  UNL1        0.1396
     20 O          62.3839   82.2486   15.1055 O.3     1  UNL1       -0.3819
     21 H          61.5387   81.9486   14.7357 H       1  UNL1        0.2104
     22 O          60.8437   85.5026    8.7520 O.3     1  UNL1       -0.4758
     23 C          61.4672   84.6412    6.3815 C.3     1  UNL1        0.0512
     24 C          60.5696   85.4410    7.2786 C.3     1  UNL1        0.2055
     25 C          62.1207   90.7587   11.3488 C.3     1  UNL1        0.0526
     26 C          63.3348   90.8895   12.2198 C.ar    1  UNL1       -0.0178
     27 C          63.4471   90.0785   13.4767 C.ar    1  UNL1       -0.0043
     28 C          64.6612   90.2093   14.3478 C.ar    1  UNL1       -0.0046
     29 C          65.7631   91.1511   13.9620 C.ar    1  UNL1       -0.0222
     30 C          65.6509   91.9621   12.7052 C.ar    1  UNL1       -0.0046
     31 C          64.4367   91.8313   11.8341 C.ar    1  UNL1       -0.0043
     32 C          66.9772   91.2819   14.8332 C.3     1  UNL1        0.0264
     33 C          67.1176   92.4590   15.7522 C.3     1  UNL1        0.0050
@<TRIPOS>BOND
     1    23    24    1
     2    24    22    1
     3    22     1    1
     4     1     2   ar
     5     2     3   ar
     6     3     4   ar
     7     4    25    1
     8    25    26    1
     9    26    27   ar
    10    27    28   ar
    11    28    29   ar
    12    29    32    1
    13    32    33    1
    14    29    30   ar
    15    30    31   ar
    16     4     5   ar
    17     5     6   ar
    18     7     6    1
    19     7     8    1
    20     8     9    1
    21     9    19    1
    22    19    20    1
    23     9    10    1
    24    10    11    1
    25    10    12    1
    26    12    13    1
    27    12    14    1
    28    14    15    1
    29     6     1   ar
    30    14     7    1
    31    31    26   ar
    32    20    21    1
    33    11    16    1
    34    13    17    1
    35    15    18    1
@<TRIPOS>MOLECULE
*****
 33 35 0 0 0
SMALL
GASTEIGER

@<TRIPOS>ATOM
      1 C          61.5307   87.0567   10.2865 C.ar    1  UNL1        0.1346
      2 C          61.2369   88.4974    9.9903 C.ar    1  UNL1        0.0363
      3 C          61.8317   89.5757   10.8469 C.ar    1  UNL1       -0.0008
      4 C          62.7203   89.2131   11.9997 C.ar    1  UNL1       -0.0179
      5 C          63.0140   87.7723   12.2959 C.ar    1  UNL1       -0.0051
      6 C          62.4192   86.6941   11.4393 C.ar    1  UNL1        0.0136
      7 C          62.7131   85.2532   11.7356 C.3     1  UNL1        0.0548
      8 C          62.4212   84.6926   13.0959 C.3     1  UNL1        0.0120
      9 C          62.7149   83.2519   13.3922 C.3     1  UNL1        0.0591
     10 C          63.3006   82.3716   12.3282 C.3     1  UNL1        0.1420
     11 O          63.5944   80.9308   12.6245 O.3     1  UNL1       -0.3818
     12 C          63.5925   82.9322   10.9678 C.3     1  UNL1        0.1642
     13 O          64.1782   82.0520    9.9038 O.3     1  UNL1       -0.3795
     14 C          63.2987   84.3731   10.6715 C.3     1  UNL1        0.1436
     15 O          63.5906   84.9336    9.3112 O.3     1  UNL1       -0.3816
     16 H          63.3488   80.7328   13.5417 H       1  UNL1        0.2104
     17 H          64.3038   82.5668    9.0913 H       1  UNL1        0.2105
     18 H          63.9631   84.2375    8.7477 H       1  UNL1        0.2105
     19 C          62.4230   82.6913   14.7526 C.3     1  UNL1        0.1396
     20 O          62.0220   81.2536   14.9011 O.3     1  UNL1       -0.3819
     21 H          61.1599   81.1131   14.4792 H       1  UNL1        0.2104
     22 O          60.9359   85.9785    9.4300 O.3     1  UNL1       -0.4758
     23 C          59.1228   86.6723    7.7034 C.3     1  UNL1        0.0512
     24 C          60.5362   86.2790    8.0158 C.3     1  UNL1        0.2055
     25 C          63.3151   90.2913   12.8562 C.3     1  UNL1        0.0526
     26 C          64.2310   91.3120   12.2487 C.ar    1  UNL1       -0.0178
     27 C          64.0591   91.7144   10.8139 C.ar    1  UNL1       -0.0043
     28 C          64.9750   92.7352   10.2064 C.ar    1  UNL1       -0.0046
     29 C          66.0628   93.3537   11.0336 C.ar    1  UNL1       -0.0222
     30 C          66.2346   92.9513   12.4684 C.ar    1  UNL1       -0.0046
     31 C          65.3187   91.9305   13.0760 C.ar    1  UNL1       -0.0043
     32 C          66.9787   94.3745   10.4261 C.3     1  UNL1        0.0264
     33 C          67.8489   94.0030    9.2621 C.3     1  UNL1        0.0050
@<TRIPOS>BOND
     1    23    24    1
     2    24    22    1
     3    22     1    1
     4     1     2   ar
     5     2     3   ar
     6     3     4   ar
     7     4    25    1
     8    25    26    1
     9    26    27   ar
    10    27    28   ar
    11    28    29   ar
    12    29    32    1
    13    32    33    1
    14    29    30   ar
    15    30    31   ar
    16     4     5   ar
    17     5     6   ar
    18     7     6    1
    19     7     8    1
    20     8     9    1
    21     9    19    1
    22    19    20    1
    23     9    10    1
    24    10    11    1
    25    10    12    1
    26    12    13    1
    27    12    14    1
    28    14    15    1
    29     6     1   ar
    30    14     7    1
    31    31    26   ar
    32    20    21    1
    33    11    16    1
    34    13    17    1
    35    15    18    1
@<TRIPOS>MOLECULE
*****
 33 35 0 0 0
SMALL
GASTEIGER

@<TRIPOS>ATOM
      1 C          62.2643   86.7464   10.1253 C.ar    1  UNL1        0.1346
      2 C          61.9633   88.0151    9.3838 C.ar    1  UNL1        0.0363
      3 C          62.1171   89.3397   10.0706 C.ar    1  UNL1       -0.0008
      4 C          62.5720   89.3957   11.4989 C.ar    1  UNL1       -0.0179
      5 C          62.8730   88.1270   12.2403 C.ar    1  UNL1       -0.0051
      6 C          62.7192   86.8024   11.5535 C.ar    1  UNL1        0.0136
      7 C          63.0202   85.5337   12.2951 C.3     1  UNL1        0.0548
      8 C          62.6652   84.2084   11.6888 C.3     1  UNL1        0.0120
      9 C          62.9662   82.9397   12.4303 C.3     1  UNL1        0.0591
     10 C          63.6223   82.9963   13.7781 C.3     1  UNL1        0.1420
     11 O          63.9234   81.7276   14.5195 O.3     1  UNL1       -0.3818
     12 C          63.9774   84.3216   14.3843 C.3     1  UNL1        0.1642
     13 O          64.6334   84.3782   15.7320 O.3     1  UNL1       -0.3795
     14 C          63.6763   85.5903   13.6428 C.3     1  UNL1        0.1436
     15 O          64.0313   86.9156   14.2490 O.3     1  UNL1       -0.3816
     16 H          63.6323   80.9677   13.9915 H       1  UNL1        0.2104
     17 H          64.7938   85.3035   15.9749 H       1  UNL1        0.2105
     18 H          64.4448   86.7746   15.1151 H       1  UNL1        0.2105
     19 C          62.6112   81.6144   11.8240 C.3     1  UNL1        0.1396
     20 O          62.4016   80.4187   12.7051 O.3     1  UNL1       -0.3819
     21 H          63.2390   80.1820   13.1336 H       1  UNL1        0.2104
     22 O          62.1105   85.4218    9.4385 O.3     1  UNL1       -0.4758
     23 C          62.1324   84.8563    6.9028 C.3     1  UNL1        0.0512
     24 C          62.8714   85.1380    8.1774 C.3     1  UNL1        0.2055
     25 C          62.7258   90.7203   12.1857 C.3     1  UNL1        0.0526
     26 C          64.0521   91.1158   12.7639 C.ar    1  UNL1       -0.0178
     27 C          64.9764   92.0025   11.9831 C.ar    1  UNL1       -0.0043
     28 C          66.3027   92.3980   12.5613 C.ar    1  UNL1       -0.0046
     29 C          66.7049   91.9068   13.9203 C.ar    1  UNL1       -0.0222
     30 C          65.7807   91.0201   14.7011 C.ar    1  UNL1       -0.0046
     31 C          64.4543   90.6246   14.1229 C.ar    1  UNL1       -0.0043
     32 C          68.0313   92.3023   14.4986 C.3     1  UNL1        0.0264
     33 C          68.2353   92.2901   15.9845 C.3     1  UNL1        0.0050
@<TRIPOS>BOND
     1    23    24    1
     2    24    22    1
     3    22     1    1
     4     1     2   ar
     5     2     3   ar
     6     3     4   ar
     7     4    25    1
     8    25    26    1
     9    26    27   ar
    10    27    28   ar
    11    28    29   ar
    12    29    32    1
    13    32    33    1
    14    29    30   ar
    15    30    31   ar
    16     4     5   ar
    17     5     6   ar
    18     7     6    1
    19     7     8    1
    20     8     9    1
    21     9    19    1
    22    19    20    1
    23     9    10    1
    24    10    11    1
    25    10    12    1
    26    12    13    1
    27    12    14    1
    28    14    15    1
    29     6     1   ar
    30    14     7    1
    31    31    26   ar
    32    20    21    1
    33    11    16    1
    34    13    17    1
    35    15    18    1
@<TRIPOS>MOLECULE
*****
 33 35 0 0 0
SMALL
GASTEIGER

@<TRIPOS>ATOM
      1 C          63.0584   84.8463    8.8957 C.ar    1  UNL1        0.1346
      2 C          63.8036   83.5521    9.0360 C.ar    1  UNL1        0.0363
      3 C          64.0714   82.9849   10.3985 C.ar    1  UNL1       -0.0008
      4 C          63.5941   83.7118   11.6207 C.ar    1  UNL1       -0.0179
      5 C          62.8489   85.0059   11.4803 C.ar    1  UNL1       -0.0051
      6 C          62.5810   85.5732   10.1178 C.ar    1  UNL1        0.0136
      7 C          61.8358   86.8675    9.9775 C.3     1  UNL1        0.0548
      8 C          60.8946   87.0700    8.8272 C.3     1  UNL1        0.0120
      9 C          60.1494   88.3642    8.6869 C.3     1  UNL1        0.0591
     10 C          60.3454   89.4559    9.6968 C.3     1  UNL1        0.1420
     11 O          59.6001   90.7501    9.5565 O.3     1  UNL1       -0.3818
     12 C          61.2866   89.2533   10.8471 C.3     1  UNL1        0.1642
     13 O          61.4826   90.3449   11.8570 O.3     1  UNL1       -0.3795
     14 C          62.0318   87.9591   10.9874 C.3     1  UNL1        0.1436
     15 O          62.9730   87.7565   12.1376 O.3     1  UNL1       -0.3816
     16 H          59.0392   90.7161    8.7658 H       1  UNL1        0.2104
     17 H          62.1185   90.0534   12.5289 H       1  UNL1        0.2105
     18 H          62.9826   88.5527   12.6917 H       1  UNL1        0.2105
     19 C          59.2081   88.5668    7.5366 C.3     1  UNL1        0.1396
     20 O          59.4057   89.7218    6.6003 O.3     1  UNL1       -0.3819
     21 H          59.2601   90.5536    7.0776 H       1  UNL1        0.2104
     22 O          62.7905   85.4136    7.5331 O.3     1  UNL1       -0.4758
     23 C          62.1464   84.1447    5.3595 C.3     1  UNL1        0.0512
     24 C          61.7477   84.7908    6.6531 C.3     1  UNL1        0.2055
     25 C          63.8619   83.1445   12.9832 C.3     1  UNL1        0.0526
     26 C          63.6065   83.9759   14.2053 C.ar    1  UNL1       -0.0178
     27 C          64.6045   85.0124   14.6293 C.ar    1  UNL1       -0.0043
     28 C          64.3490   85.8438   15.8513 C.ar    1  UNL1       -0.0046
     29 C          63.0956   85.6388   16.6494 C.ar    1  UNL1       -0.0222
     30 C          62.0977   84.6024   16.2255 C.ar    1  UNL1       -0.0046
     31 C          62.3531   83.7709   15.0033 C.ar    1  UNL1       -0.0043
     32 C          62.8402   86.4703   17.8715 C.3     1  UNL1        0.0264
     33 C          62.9178   87.9661   17.7906 C.3     1  UNL1        0.0050
@<TRIPOS>BOND
     1    23    24    1
     2    24    22    1
     3    22     1    1
     4     1     2   ar
     5     2     3   ar
     6     3     4   ar
     7     4    25    1
     8    25    26    1
     9    26    27   ar
    10    27    28   ar
    11    28    29   ar
    12    29    32    1
    13    32    33    1
    14    29    30   ar
    15    30    31   ar
    16     4     5   ar
    17     5     6   ar
    18     7     6    1
    19     7     8    1
    20     8     9    1
    21     9    19    1
    22    19    20    1
    23     9    10    1
    24    10    11    1
    25    10    12    1
    26    12    13    1
    27    12    14    1
    28    14    15    1
    29     6     1   ar
    30    14     7    1
    31    31    26   ar
    32    20    21    1
    33    11    16    1
    34    13    17    1
    35    15    18    1
@<TRIPOS>MOLECULE
*****
 33 35 0 0 0
SMALL
GASTEIGER

@<TRIPOS>ATOM
      1 C          61.8464   87.0716   11.1312 C.ar    1  UNL1        0.1346
      2 C          61.6636   88.5418   10.8966 C.ar    1  UNL1        0.0363
      3 C          62.4353   89.5337   11.7155 C.ar    1  UNL1       -0.0008
      4 C          63.3900   89.0553   12.7690 C.ar    1  UNL1       -0.0179
      5 C          63.5728   87.5852   13.0035 C.ar    1  UNL1       -0.0051
      6 C          62.8010   86.5933   12.1846 C.ar    1  UNL1        0.0136
      7 C          62.9839   85.1230   12.4193 C.3     1  UNL1        0.0548
      8 C          63.2860   84.2115   11.2669 C.3     1  UNL1        0.0120
      9 C          63.4689   82.7414   11.5015 C.3     1  UNL1        0.0591
     10 C          63.3497   82.1826   12.8885 C.3     1  UNL1        0.1420
     11 O          63.5326   80.7124   13.1231 O.3     1  UNL1       -0.3818
     12 C          63.0476   83.0941   14.0408 C.3     1  UNL1        0.1642
     13 O          62.9283   82.5354   15.4278 O.3     1  UNL1       -0.3795
     14 C          62.8647   84.5643   13.8062 C.3     1  UNL1        0.1436
     15 O          62.5626   85.4758   14.9586 O.3     1  UNL1       -0.3816
     16 H          63.7203   80.2713   12.2798 H       1  UNL1        0.2104
     17 H          62.7319   83.2533   16.0498 H       1  UNL1        0.2105
     18 H          62.5198   84.9581   15.7777 H       1  UNL1        0.2105
     19 C          63.7710   81.8299   10.3492 C.3     1  UNL1        0.1396
     20 O          63.0287   80.5347   10.2027 O.3     1  UNL1       -0.3819
     21 H          63.2569   79.9462   10.9393 H       1  UNL1        0.2104
     22 O          61.0746   86.0798   10.3123 O.3     1  UNL1       -0.4758
     23 C          60.9259   85.8988    7.7248 C.3     1  UNL1        0.0512
     24 C          60.4524   86.5014    9.0142 C.3     1  UNL1        0.2055
     25 C          64.1617   90.0472   13.5879 C.3     1  UNL1        0.0526
     26 C          64.7672   91.2523   12.9314 C.ar    1  UNL1       -0.0178
     27 C          65.7230   92.1212   13.6941 C.ar    1  UNL1       -0.0043
     28 C          66.3284   93.3263   13.0376 C.ar    1  UNL1       -0.0046
     29 C          65.9781   93.6627   11.6184 C.ar    1  UNL1       -0.0222
     30 C          65.0223   92.7940   10.8557 C.ar    1  UNL1       -0.0046
     31 C          64.4168   91.5888   11.5122 C.ar    1  UNL1       -0.0043
     32 C          66.5835   94.8680   10.9619 C.3     1  UNL1        0.0264
     33 C          66.0178   96.2312   11.2292 C.3     1  UNL1        0.0050
@<TRIPOS>BOND
     1    23    24    1
     2    24    22    1
     3    22     1    1
     4     1     2   ar
     5     2     3   ar
     6     3     4   ar
     7     4    25    1
     8    25    26    1
     9    26    27   ar
    10    27    28   ar
    11    28    29   ar
    12    29    32    1
    13    32    33    1
    14    29    30   ar
    15    30    31   ar
    16     4     5   ar
    17     5     6   ar
    18     7     6    1
    19     7     8    1
    20     8     9    1
    21     9    19    1
    22    19    20    1
    23     9    10    1
    24    10    11    1
    25    10    12    1
    26    12    13    1
    27    12    14    1
    28    14    15    1
    29     6     1   ar
    30    14     7    1
    31    31    26   ar
    32    20    21    1
    33    11    16    1
    34    13    17    1
    35    15    18    1
@<TRIPOS>MOLECULE
*****
 33 35 0 0 0
SMALL
GASTEIGER

@<TRIPOS>ATOM
      1 C          63.5436   89.8367   15.8316 C.ar    1  UNL1        0.1346
      2 C          63.9316   91.0506   16.6227 C.ar    1  UNL1        0.0363
      3 C          65.0294   91.9469   16.1311 C.ar    1  UNL1       -0.0008
      4 C          65.7390   91.6293   14.8483 C.ar    1  UNL1       -0.0179
      5 C          65.3510   90.4154   14.0572 C.ar    1  UNL1       -0.0051
      6 C          64.2533   89.5191   14.5488 C.ar    1  UNL1        0.0136
      7 C          63.8652   88.3052   13.7577 C.3     1  UNL1        0.0548
      8 C          64.2325   86.9380   14.2534 C.3     1  UNL1        0.0120
      9 C          63.8446   85.7241   13.4623 C.3     1  UNL1        0.0591
     10 C          63.0892   85.8774   12.1754 C.3     1  UNL1        0.1420
     11 O          62.7012   84.6635   11.3842 O.3     1  UNL1       -0.3818
     12 C          62.7219   87.2447   11.6797 C.3     1  UNL1        0.1642
     13 O          61.9666   87.3980   10.3928 O.3     1  UNL1       -0.3795
     14 C          63.1099   88.4586   12.4708 C.3     1  UNL1        0.1436
     15 O          62.7426   89.8258   11.9751 O.3     1  UNL1       -0.3816
     16 H          63.0127   83.8666   11.8412 H       1  UNL1        0.2104
     17 H          61.8111   88.3396   10.2195 H       1  UNL1        0.2105
     18 H          62.2610   89.7472   11.1368 H       1  UNL1        0.2105
     19 C          64.2119   84.3568   13.9580 C.3     1  UNL1        0.1396
     20 O          64.8826   83.3806   13.0377 O.3     1  UNL1       -0.3819
     21 H          64.2718   83.1361   12.3249 H       1  UNL1        0.2104
     22 O          62.4459   88.9405   16.3232 O.3     1  UNL1       -0.4758
     23 C          62.4318   86.5350   17.3048 C.3     1  UNL1        0.0512
     24 C          62.6988   88.0023   17.4659 C.3     1  UNL1        0.2055
     25 C          66.8368   92.5256   14.3567 C.3     1  UNL1        0.0526
     26 C          66.8482   92.9832   12.9283 C.ar    1  UNL1       -0.0178
     27 C          67.4659   92.1193   11.8689 C.ar    1  UNL1       -0.0043
     28 C          67.4773   92.5769   10.4405 C.ar    1  UNL1       -0.0046
     29 C          66.8712   93.8985   10.0714 C.ar    1  UNL1       -0.0222
     30 C          66.2536   94.7623   11.1307 C.ar    1  UNL1       -0.0046
     31 C          66.2421   94.3047   12.5592 C.ar    1  UNL1       -0.0043
     32 C          66.8827   94.3561    8.6429 C.3     1  UNL1        0.0264
     33 C          67.4240   95.7107    8.2936 C.3     1  UNL1        0.0050
@<TRIPOS>BOND
     1    23    24    1
     2    24    22    1
     3    22     1    1
     4     1     2   ar
     5     2     3   ar
     6     3     4   ar
     7     4    25    1
     8    25    26    1
     9    26    27   ar
    10    27    28   ar
    11    28    29   ar
    12    29    32    1
    13    32    33    1
    14    29    30   ar
    15    30    31   ar
    16     4     5   ar
    17     5     6   ar
    18     7     6    1
    19     7     8    1
    20     8     9    1
    21     9    19    1
    22    19    20    1
    23     9    10    1
    24    10    11    1
    25    10    12    1
    26    12    13    1
    27    12    14    1
    28    14    15    1
    29     6     1   ar
    30    14     7    1
    31    31    26   ar
    32    20    21    1
    33    11    16    1
    34    13    17    1
    35    15    18    1
@<TRIPOS>MOLECULE
*****
 33 35 0 0 0
SMALL
GASTEIGER

@<TRIPOS>ATOM
      1 C          63.0856   84.7037    8.7812 C.ar    1  UNL1        0.1346
      2 C          63.8396   83.4357    9.0530 C.ar    1  UNL1        0.0363
      3 C          63.9824   82.9349   10.4597 C.ar    1  UNL1       -0.0008
      4 C          63.3712   83.7020   11.5946 C.ar    1  UNL1       -0.0179
      5 C          62.6173   84.9699   11.3228 C.ar    1  UNL1       -0.0051
      6 C          62.4745   85.4707    9.9161 C.ar    1  UNL1        0.0136
      7 C          61.7205   86.7387    9.6443 C.3     1  UNL1        0.0548
      8 C          62.1693   88.0267   10.2687 C.3     1  UNL1        0.0120
      9 C          61.4154   89.2946    9.9970 C.3     1  UNL1        0.0591
     10 C          60.2126   89.2747    9.1009 C.3     1  UNL1        0.1420
     11 O          59.4587   90.5426    8.8292 O.3     1  UNL1       -0.3818
     12 C          59.7638   87.9867    8.4765 C.3     1  UNL1        0.1642
     13 O          58.5610   87.9668    7.5805 O.3     1  UNL1       -0.3795
     14 C          60.5178   86.7188    8.7483 C.3     1  UNL1        0.1436
     15 O          60.0689   85.4308    8.1239 O.3     1  UNL1       -0.3816
     16 H          59.8775   91.2763    9.3058 H       1  UNL1        0.2104
     17 H          58.4092   87.0628    7.2632 H       1  UNL1        0.2105
     18 H          59.2834   85.5925    7.5783 H       1  UNL1        0.2105
     19 C          61.8642   90.5825   10.6213 C.3     1  UNL1        0.1396
     20 O          63.1752   91.1925   10.2224 O.3     1  UNL1       -0.3819
     21 H          63.9005   90.6137   10.5051 H       1  UNL1        0.2104
     22 O          62.9429   85.2045    7.3745 O.3     1  UNL1       -0.4758
     23 C          61.6426   84.3265    5.3036 C.3     1  UNL1        0.0512
     24 C          62.8093   84.2306    6.2416 C.3     1  UNL1        0.2055
     25 C          63.5140   83.2011   13.0013 C.3     1  UNL1        0.0526
     26 C          63.3920   84.1545   14.1528 C.ar    1  UNL1       -0.0178
     27 C          64.3283   85.3212   14.2631 C.ar    1  UNL1       -0.0043
     28 C          64.2063   86.2746   15.4147 C.ar    1  UNL1       -0.0046
     29 C          63.1480   86.0613   16.4560 C.ar    1  UNL1       -0.0222
     30 C          62.2117   84.8946   16.3458 C.ar    1  UNL1       -0.0046
     31 C          62.3336   83.9412   15.1942 C.ar    1  UNL1       -0.0043
     32 C          63.0260   87.0147   17.6077 C.3     1  UNL1        0.0264
     33 C          63.0239   88.4940   17.3596 C.3     1  UNL1        0.0050
@<TRIPOS>BOND
     1    23    24    1
     2    24    22    1
     3    22     1    1
     4     1     2   ar
     5     2     3   ar
     6     3     4   ar
     7     4    25    1
     8    25    26    1
     9    26    27   ar
    10    27    28   ar
    11    28    29   ar
    12    29    32    1
    13    32    33    1
    14    29    30   ar
    15    30    31   ar
    16     4     5   ar
    17     5     6   ar
    18     7     6    1
    19     7     8    1
    20     8     9    1
    21     9    19    1
    22    19    20    1
    23     9    10    1
    24    10    11    1
    25    10    12    1
    26    12    13    1
    27    12    14    1
    28    14    15    1
    29     6     1   ar
    30    14     7    1
    31    31    26   ar
    32    20    21    1
    33    11    16    1
    34    13    17    1
    35    15    18    1
