@<TRIPOS>MOLECULE
*****
 19 21 0 0 0
SMALL
GASTEIGER

@<TRIPOS>ATOM
      1 C          62.9801   83.8158   12.4484 C.3     1  UNL1        0.0457
      2 C          63.2929   83.8877   13.9136 C.3     1  UNL1        0.0712
      3 N          63.5978   82.6335   14.6778 N.3     1  UNL1       -0.2974
      4 C          63.5898   81.3074   13.9767 C.3     1  UNL1        0.0689
      5 C          63.2770   81.2355   12.5115 C.3     1  UNL1        0.0212
      6 C          62.9721   82.4897   11.7473 C.3     1  UNL1        0.0239
      7 C          62.6672   83.7439   10.9830 C.3     1  UNL1        0.0083
      8 H          62.9117   82.5729   15.4301 H       1  UNL1        0.1232
      9 C          63.1573   83.2968   12.9980 C.ar    1  UNL1       -0.0217
     10 C          62.0336   83.4206   13.9840 C.ar    1  UNL1       -0.0034
     11 C          62.2188   84.2277   15.2347 C.ar    1  UNL1        0.0119
     12 C          63.5277   84.9110   15.4995 C.ar    1  UNL1        0.0682
     13 CL         63.7128   85.7181   16.7502 Cl      1  UNL1       -0.0814
     14 C          64.6513   84.7872   14.5135 C.ar    1  UNL1        0.0679
     15 CL         65.9601   85.4705   14.7783 Cl      1  UNL1       -0.0814
     16 C          64.4661   83.9800   13.2628 C.ar    1  UNL1        0.0080
     17 C          62.8086   85.3054   12.4118 C.3     1  UNL1        0.1438
     18 C          61.8109   87.2629   11.0251 C.3     1  UNL1        0.1741
     19 O          61.6626   85.9102   11.6562 O.3     1  UNL1       -0.3510
@<TRIPOS>BOND
     1    18    19    1
     2    19    17    1
     3     1    17    1
     4     1     2    1
     5     2     3    1
     6     3     4    1
     7     4     5    1
     8     5     6    1
     9     6     9    1
    10     9    10   ar
    11    10    11   ar
    12    11    12   ar
    13    12    13    1
    14    12    14   ar
    15    14    15    1
    16    14    16   ar
    17     6     7    1
    18     6     1    1
    19    16     9   ar
    20     7     1    1
    21     3     8    1
@<TRIPOS>MOLECULE
*****
 19 21 0 0 0
SMALL
GASTEIGER

@<TRIPOS>ATOM
      1 C          63.7234   83.4727   13.7692 C.3     1  UNL1        0.0457
      2 C          63.3498   83.3998   12.3183 C.3     1  UNL1        0.0712
      3 N          62.4811   82.2819   11.8229 N.3     1  UNL1       -0.2974
      4 C          61.9860   81.2369   12.7783 C.3     1  UNL1        0.0689
      5 C          62.3595   81.3098   14.2292 C.3     1  UNL1        0.0212
      6 C          63.2283   82.4277   14.7246 C.3     1  UNL1        0.0239
      7 C          64.0970   83.5457   15.2202 C.3     1  UNL1        0.0083
      8 H          63.0122   81.7937   11.1018 H       1  UNL1        0.1232
      9 C          63.2984   82.9889   13.3354 C.ar    1  UNL1       -0.0217
     10 C          64.2966   82.4454   12.3564 C.ar    1  UNL1       -0.0034
     11 C          64.3668   83.0066   10.9672 C.ar    1  UNL1        0.0119
     12 C          63.4387   84.1113   10.5568 C.ar    1  UNL1        0.0682
     13 CL         63.5089   84.6725    9.1674 Cl      1  UNL1       -0.0814
     14 C          62.4406   84.6548   11.5356 C.ar    1  UNL1        0.0679
     15 CL         61.5126   85.7595   11.1252 Cl      1  UNL1       -0.0814
     16 C          62.3704   84.0936   12.9250 C.ar    1  UNL1        0.0080
     17 C          64.5108   84.7215   13.5037 C.3     1  UNL1        0.1438
     18 C          64.4316   87.0310   14.6912 C.3     1  UNL1        0.1741
     19 O          64.9128   85.6111   14.6426 O.3     1  UNL1       -0.3510
@<TRIPOS>BOND
     1    18    19    1
     2    19    17    1
     3     1    17    1
     4     1     2    1
     5     2     3    1
     6     3     4    1
     7     4     5    1
     8     5     6    1
     9     6     9    1
    10     9    10   ar
    11    10    11   ar
    12    11    12   ar
    13    12    13    1
    14    12    14   ar
    15    14    15    1
    16    14    16   ar
    17     6     7    1
    18     6     1    1
    19    16     9   ar
    20     7     1    1
    21     3     8    1
@<TRIPOS>MOLECULE
*****
 19 21 0 0 0
SMALL
GASTEIGER

@<TRIPOS>ATOM
      1 C          63.4422   82.6272   11.6637 C.3     1  UNL1        0.0457
      2 C          63.3389   83.6663   12.7405 C.3     1  UNL1        0.0712
      3 N          62.6534   83.3402   14.0342 N.3     1  UNL1       -0.2974
      4 C          62.0712   81.9749   14.2511 C.3     1  UNL1        0.0689
      5 C          62.1745   80.9358   13.1744 C.3     1  UNL1        0.0212
      6 C          62.8599   81.2619   11.8807 C.3     1  UNL1        0.0239
      7 C          63.5454   81.5880   10.5869 C.3     1  UNL1        0.0083
      8 H          61.8882   84.0065   14.1381 H       1  UNL1        0.1232
      9 C          63.1364   82.6501   12.3771 C.ar    1  UNL1       -0.0217
     10 C          62.1898   83.7664   12.0490 C.ar    1  UNL1       -0.0034
     11 C          62.4663   85.1546   12.5454 C.ar    1  UNL1        0.0119
     12 C          63.6894   85.4265   13.3700 C.ar    1  UNL1        0.0682
     13 CL         63.9659   86.8147   13.8665 Cl      1  UNL1       -0.0814
     14 C          64.6361   84.3102   13.6982 C.ar    1  UNL1        0.0679
     15 CL         65.8593   84.5821   14.5227 Cl      1  UNL1       -0.0814
     16 C          64.3596   82.9219   13.2017 C.ar    1  UNL1        0.0080
     17 C          64.1740   83.6037   10.7915 C.3     1  UNL1        0.1438
     18 C          63.1811   84.9355    8.7940 C.3     1  UNL1        0.1741
     19 O          63.8419   83.7010    9.3320 O.3     1  UNL1       -0.3510
@<TRIPOS>BOND
     1    18    19    1
     2    19    17    1
     3     1    17    1
     4     1     2    1
     5     2     3    1
     6     3     4    1
     7     4     5    1
     8     5     6    1
     9     6     9    1
    10     9    10   ar
    11    10    11   ar
    12    11    12   ar
    13    12    13    1
    14    12    14   ar
    15    14    15    1
    16    14    16   ar
    17     6     7    1
    18     6     1    1
    19    16     9   ar
    20     7     1    1
    21     3     8    1
@<TRIPOS>MOLECULE
*****
 19 21 0 0 0
SMALL
GASTEIGER

@<TRIPOS>ATOM
      1 C          63.1471   84.4644   12.7613 C.3     1  UNL1        0.0457
      2 C          63.2681   83.0017   13.0708 C.3     1  UNL1        0.0712
      3 N          63.9404   82.5558   14.3353 N.3     1  UNL1       -0.2974
      4 C          64.4916   83.5726   15.2904 C.3     1  UNL1        0.0689
      5 C          64.3706   85.0353   14.9810 C.3     1  UNL1        0.0212
      6 C          63.6984   85.4812   13.7164 C.3     1  UNL1        0.0239
      7 C          63.0260   85.9272   12.4518 C.3     1  UNL1        0.0083
      8 H          64.7195   81.9580   14.0596 H       1  UNL1        0.1232
      9 C          63.4500   84.0497   13.3437 C.ar    1  UNL1       -0.0217
     10 C          64.3773   83.3500   12.3947 C.ar    1  UNL1       -0.0034
     11 C          64.1289   81.9185   12.0219 C.ar    1  UNL1        0.0119
     12 C          62.9532   81.1866   12.5981 C.ar    1  UNL1        0.0682
     13 CL         62.7048   79.7550   12.2253 Cl      1  UNL1       -0.0814
     14 C          62.0259   81.8862   13.5471 C.ar    1  UNL1        0.0679
     15 CL         60.8502   81.1543   14.1233 Cl      1  UNL1       -0.0814
     16 C          62.2743   83.3178   13.9199 C.ar    1  UNL1        0.0080
     17 C          62.4407   84.1349   11.4798 C.3     1  UNL1        0.1438
     18 C          63.0950   84.9068    9.0869 C.3     1  UNL1        0.1741
     19 O          62.3722   85.1509   10.3784 O.3     1  UNL1       -0.3510
@<TRIPOS>BOND
     1    18    19    1
     2    19    17    1
     3     1    17    1
     4     1     2    1
     5     2     3    1
     6     3     4    1
     7     4     5    1
     8     5     6    1
     9     6     9    1
    10     9    10   ar
    11    10    11   ar
    12    11    12   ar
    13    12    13    1
    14    12    14   ar
    15    14    15    1
    16    14    16   ar
    17     6     7    1
    18     6     1    1
    19    16     9   ar
    20     7     1    1
    21     3     8    1
@<TRIPOS>MOLECULE
*****
 19 21 0 0 0
SMALL
GASTEIGER

@<TRIPOS>ATOM
      1 C          61.4327   88.4389    9.8536 C.3     1  UNL1        0.0457
      2 C          61.4436   86.9420    9.9487 C.3     1  UNL1        0.0712
      3 N          60.4682   86.1325    9.1468 N.3     1  UNL1       -0.2974
      4 C          59.4819   86.8199    8.2498 C.3     1  UNL1        0.0689
      5 C          59.4710   88.3168    8.1547 C.3     1  UNL1        0.0212
      6 C          60.4464   89.1263    8.9566 C.3     1  UNL1        0.0239
      7 C          61.4218   89.9359    9.7586 C.3     1  UNL1        0.0083
      8 H          59.9265   85.5807    9.8120 H       1  UNL1        0.1232
      9 C          61.0221   87.8652    9.5294 C.ar    1  UNL1       -0.0217
     10 C          60.6442   87.4295   10.9142 C.ar    1  UNL1       -0.0034
     11 C          61.2200   86.1684   11.4869 C.ar    1  UNL1        0.0119
     12 C          62.1735   85.3429   10.6750 C.ar    1  UNL1        0.0682
     13 CL         62.7493   84.0818   11.2478 Cl      1  UNL1       -0.0814
     14 C          62.5514   85.7785    9.2903 C.ar    1  UNL1        0.0679
     15 CL         63.5050   84.9530    8.4784 Cl      1  UNL1       -0.0814
     16 C          61.9757   87.0397    8.7175 C.ar    1  UNL1        0.0080
     17 C          62.5653   88.5095   10.8345 C.3     1  UNL1        0.1438
     18 C          63.4905   89.9161   12.8133 C.3     1  UNL1        0.1741
     19 O          62.9827   89.8328   11.4043 O.3     1  UNL1       -0.3510
@<TRIPOS>BOND
     1    18    19    1
     2    19    17    1
     3     1    17    1
     4     1     2    1
     5     2     3    1
     6     3     4    1
     7     4     5    1
     8     5     6    1
     9     6     9    1
    10     9    10   ar
    11    10    11   ar
    12    11    12   ar
    13    12    13    1
    14    12    14   ar
    15    14    15    1
    16    14    16   ar
    17     6     7    1
    18     6     1    1
    19    16     9   ar
    20     7     1    1
    21     3     8    1
@<TRIPOS>MOLECULE
*****
 19 21 0 0 0
SMALL
GASTEIGER

@<TRIPOS>ATOM
      1 C          60.7586   87.3496    9.2194 C.3     1  UNL1        0.0457
      2 C          61.3207   88.1650   10.3459 C.3     1  UNL1        0.0712
      3 N          62.1028   87.4970   11.4377 N.3     1  UNL1       -0.2974
      4 C          62.3227   86.0136   11.4031 C.3     1  UNL1        0.0689
      5 C          61.7606   85.1982   10.2766 C.3     1  UNL1        0.0212
      6 C          60.9785   85.8662    9.1848 C.3     1  UNL1        0.0239
      7 C          60.1963   86.5342    8.0929 C.3     1  UNL1        0.0083
      8 H          61.6214   87.7029   12.3131 H       1  UNL1        0.1232
      9 C          61.1761   87.1934    9.8552 C.ar    1  UNL1       -0.0217
     10 C          62.4243   87.9848    9.5986 C.ar    1  UNL1       -0.0034
     11 C          62.6219   89.3120   10.2690 C.ar    1  UNL1        0.0119
     12 C          61.5714   89.8478   11.1960 C.ar    1  UNL1        0.0682
     13 CL         61.7691   91.1750   11.8664 Cl      1  UNL1       -0.0814
     14 C          60.3233   89.0564   11.4526 C.ar    1  UNL1        0.0679
     15 CL         59.2728   89.5922   12.3797 Cl      1  UNL1       -0.0814
     16 C          60.1256   87.7292   10.7822 C.ar    1  UNL1        0.0080
     17 C          60.1801   88.5916    8.6091 C.3     1  UNL1        0.1438
     18 C          59.3132   89.6115    6.3823 C.3     1  UNL1        0.1741
     19 O          59.3202   88.4948    7.3838 O.3     1  UNL1       -0.3510
@<TRIPOS>BOND
     1    18    19    1
     2    19    17    1
     3     1    17    1
     4     1     2    1
     5     2     3    1
     6     3     4    1
     7     4     5    1
     8     5     6    1
     9     6     9    1
    10     9    10   ar
    11    10    11   ar
    12    11    12   ar
    13    12    13    1
    14    12    14   ar
    15    14    15    1
    16    14    16   ar
    17     6     7    1
    18     6     1    1
    19    16     9   ar
    20     7     1    1
    21     3     8    1
@<TRIPOS>MOLECULE
*****
 19 21 0 0 0
SMALL
GASTEIGER

@<TRIPOS>ATOM
      1 C          63.1409   82.0960   12.8058 C.3     1  UNL1        0.0457
      2 C          63.4958   83.2657   11.9365 C.3     1  UNL1        0.0712
      3 N          64.2359   84.4341   12.5169 N.3     1  UNL1       -0.2974
      4 C          64.6210   84.4328   13.9666 C.3     1  UNL1        0.0689
      5 C          64.2661   83.2631   14.8359 C.3     1  UNL1        0.0212
      6 C          63.5260   82.0947   14.2555 C.3     1  UNL1        0.0239
      7 C          62.7858   80.9261   13.6750 C.3     1  UNL1        0.0083
      8 H          63.6510   85.2564   12.3684 H       1  UNL1        0.1232
      9 C          63.5086   82.7708   12.9166 C.ar    1  UNL1       -0.0217
     10 C          64.5100   82.3850   11.8685 C.ar    1  UNL1       -0.0034
     11 C          64.4926   83.0611   10.5297 C.ar    1  UNL1        0.0119
     12 C          63.4739   84.1230   10.2389 C.ar    1  UNL1        0.0682
     13 CL         63.4565   84.7991    8.8999 Cl      1  UNL1       -0.0814
     14 C          62.4725   84.5088   11.2869 C.ar    1  UNL1        0.0679
     15 CL         61.4538   85.5706   10.9961 Cl      1  UNL1       -0.0814
     16 C          62.4898   83.8327   12.6258 C.ar    1  UNL1        0.0080
     17 C          62.4912   81.4221   11.6337 C.3     1  UNL1        0.1438
     18 C          62.8885   79.4615    9.9758 C.3     1  UNL1        0.1741
     19 O          62.7297   79.9629   11.3806 O.3     1  UNL1       -0.3510
@<TRIPOS>BOND
     1    18    19    1
     2    19    17    1
     3     1    17    1
     4     1     2    1
     5     2     3    1
     6     3     4    1
     7     4     5    1
     8     5     6    1
     9     6     9    1
    10     9    10   ar
    11    10    11   ar
    12    11    12   ar
    13    12    13    1
    14    12    14   ar
    15    14    15    1
    16    14    16   ar
    17     6     7    1
    18     6     1    1
    19    16     9   ar
    20     7     1    1
    21     3     8    1
@<TRIPOS>MOLECULE
*****
 19 21 0 0 0
SMALL
GASTEIGER

@<TRIPOS>ATOM
      1 C          63.3888   83.0694   12.7764 C.3     1  UNL1        0.0457
      2 C          63.3203   84.2485   13.7010 C.3     1  UNL1        0.0712
      3 N          62.9232   85.5946   13.1716 N.3     1  UNL1       -0.2974
      4 C          62.5946   85.7616   11.7176 C.3     1  UNL1        0.0689
      5 C          62.6632   84.5825   10.7930 C.3     1  UNL1        0.0212
      6 C          63.0603   83.2364   11.3224 C.3     1  UNL1        0.0239
      7 C          63.4574   81.8902   11.8518 C.3     1  UNL1        0.0083
      8 H          63.6950   86.2300   13.3739 H       1  UNL1        0.1232
      9 C          63.2104   83.8208   12.6957 C.ar    1  UNL1       -0.0217
     10 C          62.0365   83.8542   13.6290 C.ar    1  UNL1       -0.0034
     11 C          62.1866   84.4386   15.0022 C.ar    1  UNL1        0.0119
     12 C          63.5105   84.9896   15.4423 C.ar    1  UNL1        0.0682
     13 CL         63.6606   85.5740   16.8156 Cl      1  UNL1       -0.0814
     14 C          64.6844   84.9561   14.5091 C.ar    1  UNL1        0.0679
     15 CL         66.0083   85.5071   14.9491 Cl      1  UNL1       -0.0814
     16 C          64.5343   84.3717   13.1357 C.ar    1  UNL1        0.0080
     17 C          63.8078   82.1958   13.9215 C.3     1  UNL1        0.1438
     18 C          61.8938   80.4543   14.1543 C.3     1  UNL1        0.1741
     19 O          63.3505   80.7685   13.9824 O.3     1  UNL1       -0.3510
@<TRIPOS>BOND
     1    18    19    1
     2    19    17    1
     3     1    17    1
     4     1     2    1
     5     2     3    1
     6     3     4    1
     7     4     5    1
     8     5     6    1
     9     6     9    1
    10     9    10   ar
    11    10    11   ar
    12    11    12   ar
    13    12    13    1
    14    12    14   ar
    15    14    15    1
    16    14    16   ar
    17     6     7    1
    18     6     1    1
    19    16     9   ar
    20     7     1    1
    21     3     8    1
@<TRIPOS>MOLECULE
*****
 19 21 0 0 0
SMALL
GASTEIGER

@<TRIPOS>ATOM
      1 C          61.4035   86.7701   10.0908 C.3     1  UNL1        0.0457
      2 C          61.2753   88.2553   10.2570 C.3     1  UNL1        0.0712
      3 N          60.4746   89.0539    9.2716 N.3     1  UNL1       -0.2974
      4 C          59.8021   88.3673    8.1200 C.3     1  UNL1        0.0689
      5 C          59.9303   86.8821    7.9537 C.3     1  UNL1        0.0212
      6 C          60.7310   86.0835    8.9391 C.3     1  UNL1        0.0239
      7 C          61.5317   85.2848    9.9245 C.3     1  UNL1        0.0083
      8 H          61.1065   89.7479    8.8724 H       1  UNL1        0.1232
      9 C          61.0452   87.3374    9.7000 C.ar    1  UNL1       -0.0217
     10 C          62.3392   88.0568    9.4587 C.ar    1  UNL1       -0.0034
     11 C          62.6534   89.3107   10.2195 C.ar    1  UNL1        0.0119
     12 C          61.6737   89.8453   11.2217 C.ar    1  UNL1        0.0682
     13 CL         61.9880   91.0992   11.9826 Cl      1  UNL1       -0.0814
     14 C          60.3798   89.1259   11.4631 C.ar    1  UNL1        0.0679
     15 CL         59.4001   89.6605   12.4653 Cl      1  UNL1       -0.0814
     16 C          60.0655   87.8720   10.7022 C.ar    1  UNL1        0.0080
     17 C          62.2540   86.7054   11.3246 C.3     1  UNL1        0.1438
     18 C          63.3175   85.1173   13.0845 C.3     1  UNL1        0.1741
     19 O          62.1398   85.5334   12.2537 O.3     1  UNL1       -0.3510
@<TRIPOS>BOND
     1    18    19    1
     2    19    17    1
     3     1    17    1
     4     1     2    1
     5     2     3    1
     6     3     4    1
     7     4     5    1
     8     5     6    1
     9     6     9    1
    10     9    10   ar
    11    10    11   ar
    12    11    12   ar
    13    12    13    1
    14    12    14   ar
    15    14    15    1
    16    14    16   ar
    17     6     7    1
    18     6     1    1
    19    16     9   ar
    20     7     1    1
    21     3     8    1
