@<TRIPOS>MOLECULE
*****
 30 34 0 0 0
SMALL
GASTEIGER

@<TRIPOS>ATOM
      1 C          60.6956   89.6402   11.4124 C.3     1  UNL1        0.1128
      2 O          59.5528   90.4337   10.8515 O.3     1  UNL1       -0.3844
      3 H          58.7716   89.8641   10.7726 H       1  UNL1        0.2103
      4 O          66.6885   92.1688   13.6350 O.2     1  UNL1       -0.2749
      5 C          66.0200   92.2612   12.2954 C.2     1  UNL1        0.2251
      6 N          64.6889   91.6059   12.0747 N.am    1  UNL1       -0.2795
      7 C          64.0263   90.8582   13.1935 C.3     1  UNL1        0.0935
      8 C          62.6952   90.2030   12.9727 C.3     1  UNL1        0.0240
      9 C          62.0267   90.2955   11.6331 C.3     1  UNL1        0.0304
     10 C          62.6892   91.0432   10.5143 C.3     1  UNL1        0.0240
     11 C          64.0204   91.6984   10.7351 C.3     1  UNL1        0.0935
     12 C          66.6827   93.0090   11.1765 C.3     1  UNL1        0.0767
     13 C          67.6740   92.3121   10.2925 C.3     1  UNL1        0.0091
     14 C          68.3367   93.0598    9.1736 C.3     1  UNL1        0.0005
     15 C          68.0080   94.5044    8.9389 C.3     1  UNL1        0.0000
     16 C          67.0166   95.2012    9.8230 C.3     1  UNL1        0.0005
     17 C          66.3540   94.4536   10.9418 C.3     1  UNL1        0.0091
     18 C          60.5072   88.1914   11.7525 C.3     1  UNL1        0.0564
     19 C          60.9736   87.1306   10.8000 C.3     1  UNL1        0.1119
     20 C          61.9754   86.0552   11.0998 C.ar    1  UNL1       -0.0002
     21 C          62.7581   85.7293   12.3372 C.ar    1  UNL1       -0.0024
     22 C          63.7065   84.5673   12.3403 C.ar    1  UNL1       -0.0003
     23 C          63.8722   83.7310   11.1061 C.ar    1  UNL1        0.0000
     24 C          63.0895   84.0569    9.8688 C.ar    1  UNL1        0.0012
     25 C          62.1410   85.2189    9.8656 C.ar    1  UNL1        0.0152
     26 C          61.2417   85.7776    8.8030 C.ar    1  UNL1        0.0804
     27 C          60.7882   85.6060    7.3835 C.ar    1  UNL1        0.1177
     28 N          59.7864   86.6814    7.0837 N.ar    1  UNL1       -0.2223
     29 C          59.6207   87.5177    8.3179 C.ar    1  UNL1        0.1788
     30 N          60.5201   86.9591    9.3805 N.ar    1  UNL1       -0.3069
@<TRIPOS>BOND
     1     4     5    2
     2     5    12    1
     3    12    13    1
     4    13    14    1
     5    14    15    1
     6    15    16    1
     7    16    17    1
     8     5     6   am
     9     6     7    1
    10     7     8    1
    11     8     9    1
    12     9     1    1
    13     1     2    1
    14     1    18    1
    15    18    19    1
    16    19    20    1
    17    20    21   ar
    18    21    22   ar
    19    22    23   ar
    20    23    24   ar
    21    24    25   ar
    22    25    26    1
    23    26    27   ar
    24    27    28   ar
    25    28    29   ar
    26    29    30   ar
    27     9    10    1
    28    10    11    1
    29    17    12    1
    30    11     6    1
    31    30    19    1
    32    25    20   ar
    33    30    26   ar
    34     2     3    1
@<TRIPOS>MOLECULE
*****
 30 34 0 0 0
SMALL
GASTEIGER

@<TRIPOS>ATOM
      1 C          61.0341   90.0738   11.0415 C.3     1  UNL1        0.1128
      2 O          60.0122   90.8091   10.2259 O.3     1  UNL1       -0.3844
      3 H          59.2147   90.2639   10.1390 H       1  UNL1        0.2103
      4 O          67.0943   93.3176   11.0748 O.2     1  UNL1       -0.2749
      5 C          66.3578   92.6015   12.1678 C.2     1  UNL1        0.2251
      6 N          65.0268   91.9696   11.8862 N.am    1  UNL1       -0.2795
      7 C          64.4325   92.0538   10.5116 C.3     1  UNL1        0.0935
      8 C          63.1015   91.4218   10.2300 C.3     1  UNL1        0.0240
      9 C          62.3650   90.7058   11.3231 C.3     1  UNL1        0.0304
     10 C          62.9593   90.6216   12.6977 C.3     1  UNL1        0.0240
     11 C          64.2903   91.2535   12.9792 C.3     1  UNL1        0.0935
     12 C          66.9522   92.5174   13.5424 C.3     1  UNL1        0.0767
     13 C          66.1616   92.9785   14.7309 C.3     1  UNL1        0.0091
     14 C          66.7560   92.8944   16.1055 C.3     1  UNL1        0.0005
     15 C          68.1409   92.3492   16.2917 C.3     1  UNL1        0.0000
     16 C          68.9315   91.8881   15.1032 C.3     1  UNL1        0.0005
     17 C          68.3371   91.9722   13.7286 C.3     1  UNL1        0.0091
     18 C          60.7250   88.7066   11.5756 C.3     1  UNL1        0.0564
     19 C          61.0178   87.4928   10.7443 C.3     1  UNL1        0.1119
     20 C          61.9069   86.3498   11.1356 C.ar    1  UNL1       -0.0002
     21 C          62.7127   86.0828   12.3722 C.ar    1  UNL1       -0.0024
     22 C          63.5233   84.8255   12.4821 C.ar    1  UNL1       -0.0003
     23 C          63.5280   83.8352   11.3555 C.ar    1  UNL1        0.0000
     24 C          62.7222   84.1022   10.1189 C.ar    1  UNL1        0.0012
     25 C          61.9116   85.3595   10.0089 C.ar    1  UNL1        0.0152
     26 C          61.0254   85.8906    8.9214 C.ar    1  UNL1        0.0804
     27 C          60.4807   85.6067    7.5529 C.ar    1  UNL1        0.1177
     28 N          59.5916   86.7498    7.1617 N.ar    1  UNL1       -0.2223
     29 C          59.5869   87.7400    8.2883 C.ar    1  UNL1        0.1788
     30 N          60.4731   87.2090    9.3759 N.ar    1  UNL1       -0.3069
@<TRIPOS>BOND
     1     4     5    2
     2     5    12    1
     3    12    13    1
     4    13    14    1
     5    14    15    1
     6    15    16    1
     7    16    17    1
     8     5     6   am
     9     6     7    1
    10     7     8    1
    11     8     9    1
    12     9     1    1
    13     1     2    1
    14     1    18    1
    15    18    19    1
    16    19    20    1
    17    20    21   ar
    18    21    22   ar
    19    22    23   ar
    20    23    24   ar
    21    24    25   ar
    22    25    26    1
    23    26    27   ar
    24    27    28   ar
    25    28    29   ar
    26    29    30   ar
    27     9    10    1
    28    10    11    1
    29    17    12    1
    30    11     6    1
    31    30    19    1
    32    25    20   ar
    33    30    26   ar
    34     2     3    1
@<TRIPOS>MOLECULE
*****
 30 34 0 0 0
SMALL
GASTEIGER

@<TRIPOS>ATOM
      1 C          63.4376   85.0834   15.6572 C.3     1  UNL1        0.1128
      2 O          64.4283   84.2209   16.3814 O.3     1  UNL1       -0.3844
      3 H          64.1754   83.2892   16.2875 H       1  UNL1        0.2103
      4 O          63.4812   91.8759   16.7105 O.2     1  UNL1       -0.2749
      5 C          64.1069   91.0458   15.6291 C.2     1  UNL1        0.2251
      6 N          63.9395   89.5552   15.6362 N.am    1  UNL1       -0.2795
      7 C          63.1465   88.8947   16.7246 C.3     1  UNL1        0.0935
      8 C          62.9792   87.4040   16.7316 C.3     1  UNL1        0.0240
      9 C          63.6049   86.5740   15.6502 C.3     1  UNL1        0.0304
     10 C          64.3979   87.2345   14.5617 C.3     1  UNL1        0.0240
     11 C          64.5652   88.7252   14.5547 C.3     1  UNL1        0.0935
     12 C          64.8999   91.7064   14.5407 C.3     1  UNL1        0.0767
     13 C          66.1617   92.4454   14.8749 C.3     1  UNL1        0.0091
     14 C          66.9547   93.1061   13.7866 C.3     1  UNL1        0.0005
     15 C          66.4859   93.0277   12.3639 C.3     1  UNL1        0.0000
     16 C          65.2242   92.2887   12.0296 C.3     1  UNL1        0.0005
     17 C          64.4311   91.6281   13.1179 C.3     1  UNL1        0.0091
     18 C          62.2795   84.4553   14.9399 C.3     1  UNL1        0.0564
     19 C          62.4591   83.9199   13.5502 C.3     1  UNL1        0.1119
     20 C          62.4807   84.7312   12.2888 C.ar    1  UNL1       -0.0002
     21 C          62.3417   86.2039   12.0402 C.ar    1  UNL1       -0.0024
     22 C          62.4057   86.7374   10.6397 C.ar    1  UNL1       -0.0003
     23 C          62.6086   85.7981    9.4879 C.ar    1  UNL1        0.0000
     24 C          62.7476   84.3254    9.7365 C.ar    1  UNL1        0.0012
     25 C          62.6836   83.7920   11.1370 C.ar    1  UNL1        0.0152
     26 C          62.7874   82.4002   11.6866 C.ar    1  UNL1        0.0804
     27 C          62.9770   80.9595   11.3144 C.ar    1  UNL1        0.1177
     28 N          62.9555   80.1482   12.5759 N.ar    1  UNL1       -0.2223
     29 C          62.7525   81.0874   13.7277 C.ar    1  UNL1        0.1788
     30 N          62.6487   82.4792   13.1781 N.ar    1  UNL1       -0.3069
@<TRIPOS>BOND
     1     4     5    2
     2     5    12    1
     3    12    13    1
     4    13    14    1
     5    14    15    1
     6    15    16    1
     7    16    17    1
     8     5     6   am
     9     6     7    1
    10     7     8    1
    11     8     9    1
    12     9     1    1
    13     1     2    1
    14     1    18    1
    15    18    19    1
    16    19    20    1
    17    20    21   ar
    18    21    22   ar
    19    22    23   ar
    20    23    24   ar
    21    24    25   ar
    22    25    26    1
    23    26    27   ar
    24    27    28   ar
    25    28    29   ar
    26    29    30   ar
    27     9    10    1
    28    10    11    1
    29    17    12    1
    30    11     6    1
    31    30    19    1
    32    25    20   ar
    33    30    26   ar
    34     2     3    1
@<TRIPOS>MOLECULE
*****
 30 34 0 0 0
SMALL
GASTEIGER

@<TRIPOS>ATOM
      1 C          61.0455   89.0002   11.0144 C.3     1  UNL1        0.1128
      2 O          59.9946   89.4811   10.0582 O.3     1  UNL1       -0.3844
      3 H          59.3135   88.7980    9.9559 H       1  UNL1        0.2103
      4 O          66.2494   92.5675   13.7424 O.2     1  UNL1       -0.2749
      5 C          65.7299   92.5083   12.3365 C.2     1  UNL1        0.2251
      6 N          64.5588   91.6312   12.0060 N.am    1  UNL1       -0.2795
      7 C          63.9072   90.8135   13.0814 C.3     1  UNL1        0.0935
      8 C          62.7360   89.9364   12.7509 C.3     1  UNL1        0.0240
      9 C          62.2166   89.8772   11.3450 C.3     1  UNL1        0.0304
     10 C          62.8682   90.6950   10.2695 C.3     1  UNL1        0.0240
     11 C          64.0393   91.5720   10.6001 C.3     1  UNL1        0.0935
     12 C          66.3816   93.3262   11.2611 C.3     1  UNL1        0.0767
     13 C          67.3054   92.6717   10.2771 C.3     1  UNL1        0.0091
     14 C          67.9571   93.4894    9.2017 C.3     1  UNL1        0.0005
     15 C          67.6850   94.9617    9.1104 C.3     1  UNL1        0.0000
     16 C          66.7612   95.6162   10.0944 C.3     1  UNL1        0.0005
     17 C          66.1095   94.7984   11.1698 C.3     1  UNL1        0.0091
     18 C          60.9252   87.6421   11.6401 C.3     1  UNL1        0.0564
     19 C          61.7464   86.5005   11.1182 C.3     1  UNL1        0.1119
     20 C          61.7933   86.0261    9.6960 C.ar    1  UNL1       -0.0002
     21 C          61.0958   86.5011    8.4559 C.ar    1  UNL1       -0.0024
     22 C          61.3457   85.8153    7.1455 C.ar    1  UNL1       -0.0003
     23 C          62.2930   84.6545    7.0752 C.ar    1  UNL1        0.0000
     24 C          62.9905   84.1794    8.3153 C.ar    1  UNL1        0.0012
     25 C          62.7407   84.8652    9.6256 C.ar    1  UNL1        0.0152
     26 C          63.2792   84.6223   11.0044 C.ar    1  UNL1        0.0804
     27 C          64.1976   83.7546   11.8131 C.ar    1  UNL1        0.1177
     28 N          64.1506   84.2291   13.2353 N.ar    1  UNL1       -0.2223
     29 C          63.2032   85.3899   13.3056 C.ar    1  UNL1        0.1788
     30 N          62.6647   85.6329   11.9269 N.ar    1  UNL1       -0.3069
@<TRIPOS>BOND
     1     4     5    2
     2     5    12    1
     3    12    13    1
     4    13    14    1
     5    14    15    1
     6    15    16    1
     7    16    17    1
     8     5     6   am
     9     6     7    1
    10     7     8    1
    11     8     9    1
    12     9     1    1
    13     1     2    1
    14     1    18    1
    15    18    19    1
    16    19    20    1
    17    20    21   ar
    18    21    22   ar
    19    22    23   ar
    20    23    24   ar
    21    24    25   ar
    22    25    26    1
    23    26    27   ar
    24    27    28   ar
    25    28    29   ar
    26    29    30   ar
    27     9    10    1
    28    10    11    1
    29    17    12    1
    30    11     6    1
    31    30    19    1
    32    25    20   ar
    33    30    26   ar
    34     2     3    1
@<TRIPOS>MOLECULE
*****
 30 34 0 0 0
SMALL
GASTEIGER

@<TRIPOS>ATOM
      1 C          63.3369   85.1035   15.8682 C.3     1  UNL1        0.1128
      2 O          64.2609   84.2655   16.7013 O.3     1  UNL1       -0.3844
      3 H          63.9796   83.3380   16.6625 H       1  UNL1        0.2103
      4 O          63.6213   91.9456   16.4636 O.2     1  UNL1       -0.2749
      5 C          64.2186   91.0230   15.4427 C.2     1  UNL1        0.2251
      6 N          63.9981   89.5431   15.5492 N.am    1  UNL1       -0.2795
      7 C          63.1804   88.9858   16.6764 C.3     1  UNL1        0.0935
      8 C          62.9600   87.5059   16.7828 C.3     1  UNL1        0.0240
      9 C          63.5573   86.5834   15.7619 C.3     1  UNL1        0.0304
     10 C          64.3750   87.1407   14.6346 C.3     1  UNL1        0.0240
     11 C          64.5954   88.6206   14.5283 C.3     1  UNL1        0.0935
     12 C          65.0363   91.5804   14.3155 C.3     1  UNL1        0.0767
     13 C          64.4228   91.7524   12.9576 C.3     1  UNL1        0.0091
     14 C          65.2404   92.3098   11.8303 C.3     1  UNL1        0.0005
     15 C          66.6716   92.6952   12.0610 C.3     1  UNL1        0.0000
     16 C          67.2851   92.5232   13.4189 C.3     1  UNL1        0.0005
     17 C          66.4675   91.9658   14.5462 C.3     1  UNL1        0.0091
     18 C          62.1924   84.4615   15.1414 C.3     1  UNL1        0.0564
     19 C          62.3784   83.9666   13.7377 C.3     1  UNL1        0.1119
     20 C          62.5051   82.5320   13.3182 C.ar    1  UNL1       -0.0002
     21 C          62.4873   81.2523   14.1004 C.ar    1  UNL1       -0.0024
     22 C          62.6399   79.9386   13.3926 C.ar    1  UNL1       -0.0003
     23 C          62.8102   79.9047   11.9027 C.ar    1  UNL1        0.0000
     24 C          62.8279   81.1845   11.1205 C.ar    1  UNL1        0.0012
     25 C          62.6754   82.4981   11.8283 C.ar    1  UNL1        0.0152
     26 C          62.6539   83.9117   11.3270 C.ar    1  UNL1        0.0804
     27 C          62.7460   84.7645   10.0963 C.ar    1  UNL1        0.1177
     28 N          62.6193   86.1990   10.5160 N.ar    1  UNL1       -0.2223
     29 C          62.4490   86.2329   12.0059 C.ar    1  UNL1        0.1788
     30 N          62.4704   84.8193   12.5071 N.ar    1  UNL1       -0.3069
@<TRIPOS>BOND
     1     4     5    2
     2     5    12    1
     3    12    13    1
     4    13    14    1
     5    14    15    1
     6    15    16    1
     7    16    17    1
     8     5     6   am
     9     6     7    1
    10     7     8    1
    11     8     9    1
    12     9     1    1
    13     1     2    1
    14     1    18    1
    15    18    19    1
    16    19    20    1
    17    20    21   ar
    18    21    22   ar
    19    22    23   ar
    20    23    24   ar
    21    24    25   ar
    22    25    26    1
    23    26    27   ar
    24    27    28   ar
    25    28    29   ar
    26    29    30   ar
    27     9    10    1
    28    10    11    1
    29    17    12    1
    30    11     6    1
    31    30    19    1
    32    25    20   ar
    33    30    26   ar
    34     2     3    1
@<TRIPOS>MOLECULE
*****
 30 34 0 0 0
SMALL
GASTEIGER

@<TRIPOS>ATOM
      1 C          63.9448   89.4927   15.3781 C.3     1  UNL1        0.1128
      2 O          62.9424   90.2284   16.2170 O.3     1  UNL1       -0.3844
      3 H          63.1741   91.1699   16.2463 H       1  UNL1        0.2103
      4 O          63.1567   82.6735   15.7350 O.2     1  UNL1       -0.2749
      5 C          63.4053   83.5732   14.5608 C.2     1  UNL1        0.2251
      6 N          63.5401   85.0531   14.7652 N.am    1  UNL1       -0.2795
      7 C          63.4265   85.6332   16.1437 C.3     1  UNL1        0.0935
      8 C          63.5613   87.1131   16.3480 C.3     1  UNL1        0.0240
      9 C          63.8099   88.0128   15.1738 C.3     1  UNL1        0.0304
     10 C          63.9236   87.4326   13.7952 C.3     1  UNL1        0.0240
     11 C          63.7887   85.9527   13.5909 C.3     1  UNL1        0.0935
     12 C          63.5189   82.9929   13.1823 C.3     1  UNL1        0.0767
     13 C          64.4741   83.5919   12.1929 C.3     1  UNL1        0.0091
     14 C          64.5878   83.0117   10.8143 C.3     1  UNL1        0.0005
     15 C          63.7463   81.8325   10.4252 C.3     1  UNL1        0.0000
     16 C          62.7911   81.2335   11.4146 C.3     1  UNL1        0.0005
     17 C          62.6774   81.8137   12.7931 C.3     1  UNL1        0.0091
     18 C          65.0821   90.2368   14.7434 C.3     1  UNL1        0.0564
     19 C          64.8696   90.9744   13.4546 C.3     1  UNL1        0.1119
     20 C          63.8916   90.6056   12.3787 C.ar    1  UNL1       -0.0002
     21 C          62.9045   89.4823   12.2617 C.ar    1  UNL1       -0.0024
     22 C          62.0410   89.3668   11.0406 C.ar    1  UNL1       -0.0003
     23 C          62.1647   90.3747    9.9366 C.ar    1  UNL1        0.0000
     24 C          63.1518   91.4980   10.0536 C.ar    1  UNL1        0.0012
     25 C          64.0152   91.6135   11.2747 C.ar    1  UNL1        0.0152
     26 C          65.0696   92.6051   11.6683 C.ar    1  UNL1        0.0804
     27 C          65.7977   93.8410   11.2291 C.ar    1  UNL1        0.1177
     28 N          66.7757   94.2097   12.3051 N.ar    1  UNL1       -0.2223
     29 C          66.6520   93.2018   13.4092 C.ar    1  UNL1        0.1788
     30 N          65.5976   92.2102   13.0156 N.ar    1  UNL1       -0.3069
@<TRIPOS>BOND
     1     4     5    2
     2     5    12    1
     3    12    13    1
     4    13    14    1
     5    14    15    1
     6    15    16    1
     7    16    17    1
     8     5     6   am
     9     6     7    1
    10     7     8    1
    11     8     9    1
    12     9     1    1
    13     1     2    1
    14     1    18    1
    15    18    19    1
    16    19    20    1
    17    20    21   ar
    18    21    22   ar
    19    22    23   ar
    20    23    24   ar
    21    24    25   ar
    22    25    26    1
    23    26    27   ar
    24    27    28   ar
    25    28    29   ar
    26    29    30   ar
    27     9    10    1
    28    10    11    1
    29    17    12    1
    30    11     6    1
    31    30    19    1
    32    25    20   ar
    33    30    26   ar
    34     2     3    1
@<TRIPOS>MOLECULE
*****
 30 34 0 0 0
SMALL
GASTEIGER

@<TRIPOS>ATOM
      1 C          61.0261   88.8817   11.1850 C.3     1  UNL1        0.1128
      2 O          59.8848   89.3532   10.3336 O.3     1  UNL1       -0.3844
      3 H          59.2132   88.6556   10.2779 H       1  UNL1        0.2103
      4 O          66.1599   93.4520   11.1044 O.2     1  UNL1       -0.2749
      5 C          65.7269   92.4801   12.1618 C.2     1  UNL1        0.2251
      6 N          64.5517   91.5805   11.9175 N.am    1  UNL1       -0.2795
      7 C          63.8096   91.6528   10.6160 C.3     1  UNL1        0.0935
      8 C          62.6344   90.7532   10.3718 C.3     1  UNL1        0.0240
      9 C          62.2013   89.7813   11.4292 C.3     1  UNL1        0.0304
     10 C          62.9435   89.7090   12.7307 C.3     1  UNL1        0.0240
     11 C          64.1187   90.6087   12.9749 C.3     1  UNL1        0.0935
     12 C          66.4691   92.4079   13.4632 C.3     1  UNL1        0.0767
     13 C          65.7911   92.8175   14.7370 C.3     1  UNL1        0.0091
     14 C          66.5332   92.7453   16.0385 C.3     1  UNL1        0.0005
     15 C          67.9534   92.2635   16.0663 C.3     1  UNL1        0.0000
     16 C          68.6314   91.8538   14.7925 C.3     1  UNL1        0.0005
     17 C          67.8893   91.9260   13.4910 C.3     1  UNL1        0.0091
     18 C          60.9923   87.5105   11.7924 C.3     1  UNL1        0.0564
     19 C          61.8075   86.4039   11.1917 C.3     1  UNL1        0.1119
     20 C          61.8038   85.9885    9.7504 C.ar    1  UNL1       -0.0002
     21 C          61.0505   86.5027    8.5596 C.ar    1  UNL1       -0.0024
     22 C          61.2569   85.8748    7.2131 C.ar    1  UNL1       -0.0003
     23 C          62.2166   84.7325    7.0575 C.ar    1  UNL1        0.0000
     24 C          62.9699   84.2182    8.2483 C.ar    1  UNL1        0.0012
     25 C          62.7635   84.8462    9.5947 C.ar    1  UNL1        0.0152
     26 C          63.3603   84.5557   10.9399 C.ar    1  UNL1        0.0804
     27 C          64.3223   83.6701   11.6750 C.ar    1  UNL1        0.1177
     28 N          64.3260   84.0856   13.1164 N.ar    1  UNL1       -0.2223
     29 C          63.3663   85.2278   13.2720 C.ar    1  UNL1        0.1788
     30 N          62.7695   85.5184   11.9269 N.ar    1  UNL1       -0.3069
@<TRIPOS>BOND
     1     4     5    2
     2     5    12    1
     3    12    13    1
     4    13    14    1
     5    14    15    1
     6    15    16    1
     7    16    17    1
     8     5     6   am
     9     6     7    1
    10     7     8    1
    11     8     9    1
    12     9     1    1
    13     1     2    1
    14     1    18    1
    15    18    19    1
    16    19    20    1
    17    20    21   ar
    18    21    22   ar
    19    22    23   ar
    20    23    24   ar
    21    24    25   ar
    22    25    26    1
    23    26    27   ar
    24    27    28   ar
    25    28    29   ar
    26    29    30   ar
    27     9    10    1
    28    10    11    1
    29    17    12    1
    30    11     6    1
    31    30    19    1
    32    25    20   ar
    33    30    26   ar
    34     2     3    1
@<TRIPOS>MOLECULE
*****
 30 34 0 0 0
SMALL
GASTEIGER

@<TRIPOS>ATOM
      1 C          63.2256   89.8140   12.1034 C.3     1  UNL1        0.1128
      2 O          62.9172   89.9626   10.6429 O.3     1  UNL1       -0.3844
      3 H          62.8253   90.9036   10.4260 H       1  UNL1        0.2103
      4 O          64.7142   84.1936   15.7701 O.2     1  UNL1       -0.2749
      5 C          63.9867   84.3524   14.4680 C.2     1  UNL1        0.2251
      6 N          63.7965   85.7179   13.8769 N.am    1  UNL1       -0.2795
      7 C          64.3337   86.9244   14.5878 C.3     1  UNL1        0.0935
      8 C          64.1434   88.2898   13.9967 C.3     1  UNL1        0.0240
      9 C          63.4159   88.4486   12.6945 C.3     1  UNL1        0.0304
     10 C          62.8787   87.2420   11.9836 C.3     1  UNL1        0.0240
     11 C          63.0690   85.8766   12.5747 C.3     1  UNL1        0.0935
     12 C          63.4496   83.1458   13.7571 C.3     1  UNL1        0.0767
     13 C          62.3319   82.3521   14.3662 C.3     1  UNL1        0.0091
     14 C          61.7947   81.1455   13.6553 C.3     1  UNL1        0.0005
     15 C          62.3751   80.7325   12.3353 C.3     1  UNL1        0.0000
     16 C          63.4928   81.5261   11.7262 C.3     1  UNL1        0.0005
     17 C          64.0300   82.7328   12.4370 C.3     1  UNL1        0.0091
     18 C          63.3436   91.0308   12.9726 C.3     1  UNL1        0.0564
     19 C          64.6011   91.8483   12.9517 C.3     1  UNL1        0.1119
     20 C          65.4580   92.1782   14.1378 C.ar    1  UNL1       -0.0002
     21 C          65.3391   91.8260   15.5910 C.ar    1  UNL1       -0.0024
     22 C          66.3711   92.3090   16.5666 C.ar    1  UNL1       -0.0003
     23 C          67.5219   93.1440   16.0890 C.ar    1  UNL1        0.0000
     24 C          67.6409   93.4962   14.6358 C.ar    1  UNL1        0.0012
     25 C          66.6089   93.0132   13.6602 C.ar    1  UNL1        0.0152
     26 C          66.4632   93.1995   12.1790 C.ar    1  UNL1        0.0804
     27 C          67.0845   93.8307   10.9683 C.ar    1  UNL1        0.1177
     28 N          66.2275   93.5008    9.7822 N.ar    1  UNL1       -0.2223
     29 C          65.0766   92.6657   10.2598 C.ar    1  UNL1        0.1788
     30 N          65.2223   92.4795   11.7411 N.ar    1  UNL1       -0.3069
@<TRIPOS>BOND
     1     4     5    2
     2     5    12    1
     3    12    13    1
     4    13    14    1
     5    14    15    1
     6    15    16    1
     7    16    17    1
     8     5     6   am
     9     6     7    1
    10     7     8    1
    11     8     9    1
    12     9     1    1
    13     1     2    1
    14     1    18    1
    15    18    19    1
    16    19    20    1
    17    20    21   ar
    18    21    22   ar
    19    22    23   ar
    20    23    24   ar
    21    24    25   ar
    22    25    26    1
    23    26    27   ar
    24    27    28   ar
    25    28    29   ar
    26    29    30   ar
    27     9    10    1
    28    10    11    1
    29    17    12    1
    30    11     6    1
    31    30    19    1
    32    25    20   ar
    33    30    26   ar
    34     2     3    1
@<TRIPOS>MOLECULE
*****
 30 34 0 0 0
SMALL
GASTEIGER

@<TRIPOS>ATOM
      1 C          63.1827   89.3189   12.6202 C.3     1  UNL1        0.1128
      2 O          63.7127   88.2552   13.5354 O.3     1  UNL1       -0.3844
      3 H          63.1021   87.5015   13.5430 H       1  UNL1        0.2103
      4 O          66.9665   95.0431   13.0262 O.2     1  UNL1       -0.2749
      5 C          66.2407   94.4259   11.8677 C.2     1  UNL1        0.2251
      6 N          65.4762   93.1491   12.0559 N.am    1  UNL1       -0.2795
      7 C          65.4376   92.4896   13.4025 C.3     1  UNL1        0.0935
      8 C          64.6730   91.2128   13.5906 C.3     1  UNL1        0.0240
      9 C          63.9472   90.5957   12.4321 C.3     1  UNL1        0.0304
     10 C          63.9858   91.2552   11.0854 C.3     1  UNL1        0.0240
     11 C          64.7503   92.5319   10.8973 C.3     1  UNL1        0.0935
     12 C          66.2793   95.0855   10.5210 C.3     1  UNL1        0.0767
     13 C          65.3231   96.1963   10.2023 C.3     1  UNL1        0.0091
     14 C          65.3617   96.8560    8.8557 C.3     1  UNL1        0.0005
     15 C          66.3566   96.4047    7.8278 C.3     1  UNL1        0.0000
     16 C          67.3128   95.2939    8.1466 C.3     1  UNL1        0.0005
     17 C          67.2742   94.6342    9.4932 C.3     1  UNL1        0.0091
     18 C          61.8881   89.1058   11.8930 C.3     1  UNL1        0.0564
     19 C          61.6988   87.8864   11.0401 C.3     1  UNL1        0.1119
     20 C          60.9235   87.8192    9.7578 C.ar    1  UNL1       -0.0002
     21 C          60.1601   88.8578    8.9908 C.ar    1  UNL1       -0.0024
     22 C          59.4703   88.4888    7.7110 C.ar    1  UNL1       -0.0003
     23 C          59.5439   87.0811    7.1982 C.ar    1  UNL1        0.0000
     24 C          60.3073   86.0424    7.9652 C.ar    1  UNL1        0.0012
     25 C          60.9972   86.4115    9.2450 C.ar    1  UNL1        0.0152
     26 C          61.8179   85.6088   10.2104 C.ar    1  UNL1        0.0804
     27 C          62.3707   84.2426   10.4901 C.ar    1  UNL1        0.1177
     28 N          63.1459   84.3100   11.7725 N.ar    1  UNL1       -0.2223
     29 C          63.0723   85.7177   12.2853 C.ar    1  UNL1        0.1788
     30 N          62.2516   86.5204   11.3199 N.ar    1  UNL1       -0.3069
@<TRIPOS>BOND
     1     4     5    2
     2     5    12    1
     3    12    13    1
     4    13    14    1
     5    14    15    1
     6    15    16    1
     7    16    17    1
     8     5     6   am
     9     6     7    1
    10     7     8    1
    11     8     9    1
    12     9     1    1
    13     1     2    1
    14     1    18    1
    15    18    19    1
    16    19    20    1
    17    20    21   ar
    18    21    22   ar
    19    22    23   ar
    20    23    24   ar
    21    24    25   ar
    22    25    26    1
    23    26    27   ar
    24    27    28   ar
    25    28    29   ar
    26    29    30   ar
    27     9    10    1
    28    10    11    1
    29    17    12    1
    30    11     6    1
    31    30    19    1
    32    25    20   ar
    33    30    26   ar
    34     2     3    1
