@<TRIPOS>MOLECULE
*****
 39 45 0 0 0
SMALL
GASTEIGER

@<TRIPOS>ATOM
      1 C          60.6635   86.0117    8.1800 C.ar    1  UNL1        0.0146
      2 C          61.1952   85.4669    6.8875 C.ar    1  UNL1       -0.0011
      3 C          62.4229   84.6050    6.8855 C.ar    1  UNL1        0.0014
      4 C          63.1188   84.2880    8.1759 C.ar    1  UNL1        0.0206
      5 C          62.5871   84.8328    9.4684 C.ar    1  UNL1        0.0989
      6 C          61.3594   85.6946    9.4704 C.ar    1  UNL1        0.1511
      7 O          60.8277   86.2395   10.7629 O.3     1  UNL1       -0.4678
      8 C          61.5236   85.9224   12.0533 C.3     1  UNL1        0.2510
      9 C          62.7513   85.0605   12.0512 C.ar    1  UNL1        0.1087
     10 C          63.6432   84.5816   13.1581 C.ar    1  UNL1        0.1516
     11 N          64.7262   83.7408   12.5497 N.ar    1  UNL1       -0.2192
     12 C          64.5036   83.7001   11.0668 C.ar    1  UNL1        0.1828
     13 N          63.2830   84.5157   10.7588 N.ar    1  UNL1       -0.2851
     14 C          63.4806   84.8894   14.6171 C.2     1  UNL1        0.2648
     15 O          63.5122   83.7798   15.6258 O.2     1  UNL1       -0.2684
     16 N          63.2865   86.3070   15.0674 N.am    1  UNL1       -0.3012
     17 H          63.2657   87.0354   14.4053 H       1  UNL1        0.1497
     18 C          63.1239   86.6149   16.5264 C.3     1  UNL1        0.0720
     19 C          62.8507   86.1564   17.9283 C.3     1  UNL1        0.0213
     20 C          63.1156   87.6067   17.6518 C.3     1  UNL1        0.0213
     21 C          59.4358   86.8736    8.1820 C.3     1  UNL1        0.0468
     22 C          59.5584   88.3530    8.3974 C.3     1  UNL1        0.0770
     23 N          62.4409   89.9493   11.4622 N.pl3   1  UNL1       -0.3046
     24 C          60.9631   90.0872   11.6791 C.3     1  UNL1        0.1081
     25 C          60.0022   89.5551   10.6575 C.3     1  UNL1        0.0938
     26 N          60.5192   88.8851    9.4190 N.3     1  UNL1       -0.2695
     27 C          61.9971   88.7472    9.2022 C.3     1  UNL1        0.0938
     28 C          62.9579   89.2793   10.2238 C.3     1  UNL1        0.1081
     29 C          66.9716   95.1074   11.1217 C.3     1  UNL1        0.0521
     30 C          66.0791   93.9509   11.4623 C.ar    1  UNL1        0.0593
     31 C          65.1183   93.4188   10.4407 C.ar    1  UNL1        0.0148
     32 C          64.2259   92.2623   10.7812 C.ar    1  UNL1        0.0039
     33 C          64.2941   91.6379   12.1433 C.ar    1  UNL1        0.0310
     34 C          63.4017   90.4814   12.4838 C.ar    1  UNL1        0.0493
     35 C          63.4700   89.8570   13.8460 C.ar    1  UNL1        0.0146
     36 C          64.4308   90.3891   14.8676 C.ar    1  UNL1        0.0028
     37 C          65.3233   91.5456   14.5271 C.ar    1  UNL1        0.0192
     38 C          65.2550   92.1700   13.1650 C.ar    1  UNL1        0.0821
     39 N          66.1475   93.3265   12.8245 N.ar    1  UNL1       -0.2496
@<TRIPOS>BOND
     1    29    30    1
     2    30    31   ar
     3    31    32   ar
     4    32    33   ar
     5    33    34   ar
     6    34    23    1
     7    23    24    1
     8    24    25    1
     9    25    26    1
    10    26    22    1
    11    22    21    1
    12    21     1    1
    13     1     2   ar
    14     2     3   ar
    15     3     4   ar
    16     4     5   ar
    17     5     6   ar
    18     6     7    1
    19     7     8    1
    20     8     9    1
    21     9    10   ar
    22    10    14    1
    23    14    15    2
    24    14    16   am
    25    16    18    1
    26    18    19    1
    27    19    20    1
    28    10    11   ar
    29    11    12   ar
    30    12    13   ar
    31    26    27    1
    32    27    28    1
    33    34    35   ar
    34    35    36   ar
    35    36    37   ar
    36    37    38   ar
    37    38    39   ar
    38    39    30   ar
    39    38    33   ar
    40    28    23    1
    41     6     1   ar
    42    13     9   ar
    43    13     5    1
    44    20    18    1
    45    16    17    1
@<TRIPOS>MOLECULE
*****
 39 45 0 0 0
SMALL
GASTEIGER

@<TRIPOS>ATOM
      1 C          60.1157   88.9050    8.3320 C.ar    1  UNL1        0.0146
      2 C          59.7860   87.5238    7.8488 C.ar    1  UNL1       -0.0011
      3 C          60.3236   86.3268    8.5755 C.ar    1  UNL1        0.0014
      4 C          61.1909   86.5111    9.7854 C.ar    1  UNL1        0.0206
      5 C          61.5206   87.8923   10.2686 C.ar    1  UNL1        0.0989
      6 C          60.9830   89.0893    9.5419 C.ar    1  UNL1        0.1511
      7 O          61.3127   90.4706   10.0250 O.3     1  UNL1       -0.4678
      8 C          62.1800   90.6548   11.2349 C.3     1  UNL1        0.2510
      9 C          62.7176   89.4578   11.9616 C.ar    1  UNL1        0.1087
     10 C          63.5909   89.3285   13.1743 C.ar    1  UNL1        0.1516
     11 N          63.8010   87.8674   13.4406 N.ar    1  UNL1       -0.2192
     12 C          63.0575   87.0936   12.3925 C.ar    1  UNL1        0.1828
     13 N          62.3879   88.0765   11.4785 N.ar    1  UNL1       -0.2851
     14 C          64.1551   90.4615   13.9793 C.2     1  UNL1        0.2648
     15 O          63.3214   91.1153   15.0411 O.2     1  UNL1       -0.2684
     16 N          65.5531   90.9407   13.7224 N.am    1  UNL1       -0.3012
     17 H          66.1004   90.5116   13.0255 H       1  UNL1        0.1497
     18 C          66.1173   92.0737   14.5275 C.3     1  UNL1        0.0720
     19 C          66.5013   92.6601   15.8536 C.3     1  UNL1        0.0213
     20 C          66.7107   93.4497   14.5956 C.3     1  UNL1        0.0213
     21 C          59.5780   90.1021    7.6052 C.3     1  UNL1        0.0468
     22 C          59.1124   89.9708    6.1854 C.3     1  UNL1        0.0770
     23 N          60.9051   92.5711    2.9800 N.pl3   1  UNL1       -0.3046
     24 C          59.4587   92.7230    3.3471 C.3     1  UNL1        0.1081
     25 C          58.8611   91.8562    4.4156 C.3     1  UNL1        0.0938
     26 N          59.7099   90.8375    5.1169 N.3     1  UNL1       -0.2695
     27 C          61.1564   90.6857    4.7497 C.3     1  UNL1        0.0938
     28 C          61.7539   91.5524    3.6813 C.3     1  UNL1        0.1081
     29 C          59.1307   93.4712   -3.5996 C.3     1  UNL1        0.0521
     30 C          59.7236   93.4628   -2.2218 C.ar    1  UNL1        0.0593
     31 C          59.1261   92.5961   -1.1534 C.ar    1  UNL1        0.0148
     32 C          59.7191   92.5877    0.2244 C.ar    1  UNL1        0.0039
     33 C          60.9096   93.4462    0.5337 C.ar    1  UNL1        0.0310
     34 C          61.5026   93.4378    1.9115 C.ar    1  UNL1        0.0493
     35 C          62.6932   94.2963    2.2208 C.ar    1  UNL1        0.0146
     36 C          63.2907   95.1630    1.1524 C.ar    1  UNL1        0.0028
     37 C          62.6978   95.1714   -0.2254 C.ar    1  UNL1        0.0192
     38 C          61.5072   94.3130   -0.5348 C.ar    1  UNL1        0.0821
     39 N          60.9142   94.3213   -1.9125 N.ar    1  UNL1       -0.2496
@<TRIPOS>BOND
     1    29    30    1
     2    30    31   ar
     3    31    32   ar
     4    32    33   ar
     5    33    34   ar
     6    34    23    1
     7    23    24    1
     8    24    25    1
     9    25    26    1
    10    26    22    1
    11    22    21    1
    12    21     1    1
    13     1     2   ar
    14     2     3   ar
    15     3     4   ar
    16     4     5   ar
    17     5     6   ar
    18     6     7    1
    19     7     8    1
    20     8     9    1
    21     9    10   ar
    22    10    14    1
    23    14    15    2
    24    14    16   am
    25    16    18    1
    26    18    19    1
    27    19    20    1
    28    10    11   ar
    29    11    12   ar
    30    12    13   ar
    31    26    27    1
    32    27    28    1
    33    34    35   ar
    34    35    36   ar
    35    36    37   ar
    36    37    38   ar
    37    38    39   ar
    38    39    30   ar
    39    38    33   ar
    40    28    23    1
    41     6     1   ar
    42    13     9   ar
    43    13     5    1
    44    20    18    1
    45    16    17    1
@<TRIPOS>MOLECULE
*****
 39 45 0 0 0
SMALL
GASTEIGER

@<TRIPOS>ATOM
      1 C          63.0498   84.2332   15.1986 C.ar    1  UNL1        0.0146
      2 C          64.0324   83.1808   15.6194 C.ar    1  UNL1       -0.0011
      3 C          64.7936   82.4084   14.5831 C.ar    1  UNL1        0.0014
      4 C          64.5723   82.6883   13.1262 C.ar    1  UNL1        0.0206
      5 C          63.5897   83.7406   12.7055 C.ar    1  UNL1        0.0989
      6 C          62.8285   84.5131   13.7417 C.ar    1  UNL1        0.1511
      7 O          61.8459   85.5655   13.3210 O.3     1  UNL1       -0.4678
      8 C          61.6245   85.8454   11.8641 C.3     1  UNL1        0.2510
      9 C          62.3858   85.0729   10.8278 C.ar    1  UNL1        0.1087
     10 C          62.3786   85.1276    9.3289 C.ar    1  UNL1        0.1516
     11 N          63.3567   84.1091    8.8232 N.ar    1  UNL1       -0.2192
     12 C          63.9684   83.4248   10.0096 C.ar    1  UNL1        0.1828
     13 N          63.3684   84.0205   11.2486 N.ar    1  UNL1       -0.2851
     14 C          61.5404   86.0406    8.4840 C.2     1  UNL1        0.2648
     15 O          61.2451   85.6820    7.0578 O.2     1  UNL1       -0.2684
     16 N          60.9974   87.3124    9.0654 N.am    1  UNL1       -0.3012
     17 H          61.1912   87.5478   10.0015 H       1  UNL1        0.1497
     18 C          60.1592   88.2254    8.2205 C.3     1  UNL1        0.0720
     19 C          59.0587   88.4242    7.2208 C.3     1  UNL1        0.0213
     20 C          59.8080   89.6080    7.7567 C.3     1  UNL1        0.0213
     21 C          62.2886   85.0057   16.2349 C.3     1  UNL1        0.0468
     22 C          62.9380   86.1622   16.9355 C.3     1  UNL1        0.0770
     23 N          64.3253   89.7323   14.5734 N.pl3   1  UNL1       -0.3046
     24 C          63.4839   89.9255   15.8000 C.3     1  UNL1        0.1081
     25 C          63.0214   88.7355   16.5874 C.3     1  UNL1        0.0938
     26 N          63.4004   87.3522   16.1481 N.3     1  UNL1       -0.2695
     27 C          64.2419   87.1590   14.9215 C.3     1  UNL1        0.0938
     28 C          64.7043   88.3491   14.1341 C.3     1  UNL1        0.1081
     29 C          69.1176   94.4606   15.9617 C.3     1  UNL1        0.0521
     30 C          68.0351   93.5760   15.4178 C.ar    1  UNL1        0.0593
     31 C          67.5727   92.3860   16.2051 C.ar    1  UNL1        0.0148
     32 C          66.4902   91.5014   15.6612 C.ar    1  UNL1        0.0039
     33 C          65.8702   91.8069   14.3300 C.ar    1  UNL1        0.0310
     34 C          64.7878   90.9224   13.7861 C.ar    1  UNL1        0.0493
     35 C          64.1677   91.2279   12.4548 C.ar    1  UNL1        0.0146
     36 C          64.6302   92.4179   11.6675 C.ar    1  UNL1        0.0028
     37 C          65.7126   93.3025   12.2114 C.ar    1  UNL1        0.0192
     38 C          66.3327   92.9970   13.5426 C.ar    1  UNL1        0.0821
     39 N          67.4151   93.8816   14.0865 N.ar    1  UNL1       -0.2496
@<TRIPOS>BOND
     1    29    30    1
     2    30    31   ar
     3    31    32   ar
     4    32    33   ar
     5    33    34   ar
     6    34    23    1
     7    23    24    1
     8    24    25    1
     9    25    26    1
    10    26    22    1
    11    22    21    1
    12    21     1    1
    13     1     2   ar
    14     2     3   ar
    15     3     4   ar
    16     4     5   ar
    17     5     6   ar
    18     6     7    1
    19     7     8    1
    20     8     9    1
    21     9    10   ar
    22    10    14    1
    23    14    15    2
    24    14    16   am
    25    16    18    1
    26    18    19    1
    27    19    20    1
    28    10    11   ar
    29    11    12   ar
    30    12    13   ar
    31    26    27    1
    32    27    28    1
    33    34    35   ar
    34    35    36   ar
    35    36    37   ar
    36    37    38   ar
    37    38    39   ar
    38    39    30   ar
    39    38    33   ar
    40    28    23    1
    41     6     1   ar
    42    13     9   ar
    43    13     5    1
    44    20    18    1
    45    16    17    1
@<TRIPOS>MOLECULE
*****
 39 45 0 0 0
SMALL
GASTEIGER

@<TRIPOS>ATOM
      1 C          60.6326   88.9820    8.9739 C.ar    1  UNL1        0.0146
      2 C          60.8324   90.4313    9.3047 C.ar    1  UNL1       -0.0011
      3 C          61.6379   90.8218   10.5083 C.ar    1  UNL1        0.0014
      4 C          62.2436   89.7629   11.3811 C.ar    1  UNL1        0.0206
      5 C          62.0438   88.3136   11.0504 C.ar    1  UNL1        0.0989
      6 C          61.2384   87.9231    9.8468 C.ar    1  UNL1        0.1511
      7 O          61.0386   86.4737    9.5160 O.3     1  UNL1       -0.4678
      8 C          61.6443   85.4148   10.3889 C.3     1  UNL1        0.2510
      9 C          62.4498   85.8053   11.5925 C.ar    1  UNL1        0.1087
     10 C          63.1629   84.9904   12.6304 C.ar    1  UNL1        0.1516
     11 N          63.8034   85.9362   13.6027 N.ar    1  UNL1       -0.2192
     12 C          63.4862   87.3356   13.1656 C.ar    1  UNL1        0.1828
     13 N          62.6495   87.2547   11.9233 N.ar    1  UNL1       -0.2851
     14 C          63.2247   83.4927   12.6863 C.2     1  UNL1        0.2648
     15 O          64.1792   82.7479   11.8010 O.2     1  UNL1       -0.2684
     16 N          62.3317   82.7399   13.6277 N.am    1  UNL1       -0.3012
     17 H          61.7052   83.2288   14.2088 H       1  UNL1        0.1497
     18 C          62.3935   81.2423   13.6835 C.3     1  UNL1        0.0720
     19 C          61.6982   79.9133   13.7048 C.3     1  UNL1        0.0213
     20 C          63.1959   79.9771   13.7591 C.3     1  UNL1        0.0213
     21 C          59.8271   88.5914    7.7703 C.3     1  UNL1        0.0468
     22 C          58.8053   89.5373    7.2126 C.3     1  UNL1        0.0770
     23 N          59.7741   92.0105    3.5801 N.pl3   1  UNL1       -0.3046
     24 C          60.8645   91.2695    4.2955 C.3     1  UNL1        0.1081
     25 C          60.5416   90.4451    5.5064 C.3     1  UNL1        0.0938
     26 N          59.1282   90.3617    6.0018 N.3     1  UNL1       -0.2695
     27 C          58.0378   91.1028    5.2863 C.3     1  UNL1        0.0938
     28 C          58.3607   91.9271    4.0755 C.3     1  UNL1        0.1081
     29 C          65.8019   93.5221    0.6423 C.3     1  UNL1        0.0521
     30 C          64.3757   93.3503    1.0741 C.ar    1  UNL1        0.0593
     31 C          64.0527   92.5259    2.2849 C.ar    1  UNL1        0.0148
     32 C          62.6265   92.3541    2.7166 C.ar    1  UNL1        0.0039
     33 C          61.5233   93.0067    1.9376 C.ar    1  UNL1        0.0310
     34 C          60.0971   92.8349    2.3693 C.ar    1  UNL1        0.0493
     35 C          58.9938   93.4875    1.5902 C.ar    1  UNL1        0.0146
     36 C          59.3167   94.3118    0.3794 C.ar    1  UNL1        0.0028
     37 C          60.7429   94.4836   -0.0523 C.ar    1  UNL1        0.0192
     38 C          61.8462   93.8311    0.7267 C.ar    1  UNL1        0.0821
     39 N          63.2724   94.0029    0.2950 N.ar    1  UNL1       -0.2496
@<TRIPOS>BOND
     1    29    30    1
     2    30    31   ar
     3    31    32   ar
     4    32    33   ar
     5    33    34   ar
     6    34    23    1
     7    23    24    1
     8    24    25    1
     9    25    26    1
    10    26    22    1
    11    22    21    1
    12    21     1    1
    13     1     2   ar
    14     2     3   ar
    15     3     4   ar
    16     4     5   ar
    17     5     6   ar
    18     6     7    1
    19     7     8    1
    20     8     9    1
    21     9    10   ar
    22    10    14    1
    23    14    15    2
    24    14    16   am
    25    16    18    1
    26    18    19    1
    27    19    20    1
    28    10    11   ar
    29    11    12   ar
    30    12    13   ar
    31    26    27    1
    32    27    28    1
    33    34    35   ar
    34    35    36   ar
    35    36    37   ar
    36    37    38   ar
    37    38    39   ar
    38    39    30   ar
    39    38    33   ar
    40    28    23    1
    41     6     1   ar
    42    13     9   ar
    43    13     5    1
    44    20    18    1
    45    16    17    1
@<TRIPOS>MOLECULE
*****
 39 45 0 0 0
SMALL
GASTEIGER

@<TRIPOS>ATOM
      1 C          60.2650   89.1186    8.6010 C.ar    1  UNL1        0.0146
      2 C          60.3830   90.5304    9.0936 C.ar    1  UNL1       -0.0011
      3 C          61.1266   90.8221   10.3632 C.ar    1  UNL1        0.0014
      4 C          61.7522   89.7019   11.1402 C.ar    1  UNL1        0.0206
      5 C          61.6342   88.2900   10.6476 C.ar    1  UNL1        0.0989
      6 C          60.8906   87.9984    9.3780 C.ar    1  UNL1        0.1511
      7 O          60.7726   86.5864    8.8854 O.3     1  UNL1       -0.4678
      8 C          61.3982   85.4662    9.6624 C.3     1  UNL1        0.2510
      9 C          62.1418   85.7580   10.9321 C.ar    1  UNL1        0.1087
     10 C          62.8572   84.8667   11.9036 C.ar    1  UNL1        0.1516
     11 N          63.4173   85.7278   12.9967 N.ar    1  UNL1       -0.2192
     12 C          63.0481   87.1511   12.7007 C.ar    1  UNL1        0.1828
     13 N          62.2598   87.1698   11.4246 N.ar    1  UNL1       -0.2851
     14 C          62.9892   83.3761   11.8002 C.2     1  UNL1        0.2648
     15 O          63.7531   82.7680   10.6615 O.2     1  UNL1       -0.2684
     16 N          62.3573   82.4936   12.8356 N.am    1  UNL1       -0.3012
     17 H          61.8560   82.8928   13.5830 H       1  UNL1        0.1497
     18 C          62.4894   81.0031   12.7322 C.3     1  UNL1        0.0720
     19 C          62.7477   79.7757   11.9094 C.3     1  UNL1        0.0213
     20 C          62.4598   79.6485   13.3760 C.3     1  UNL1        0.0213
     21 C          59.5213   88.8269    7.3314 C.3     1  UNL1        0.0468
     22 C          58.8009   89.9297    6.6139 C.3     1  UNL1        0.0770
     23 N          60.8692   92.2031    3.3271 N.pl3   1  UNL1       -0.3046
     24 C          61.6059   91.1336    4.0776 C.3     1  UNL1        0.1081
     25 C          60.9164   90.3757    5.1733 C.3     1  UNL1        0.0938
     26 N          59.4903   90.6875    5.5183 N.3     1  UNL1       -0.2695
     27 C          58.7537   91.7571    4.7677 C.3     1  UNL1        0.0938
     28 C          59.4431   92.5149    3.6721 C.3     1  UNL1        0.1081
     29 C          59.0036   93.4010   -3.1794 C.3     1  UNL1        0.0521
     30 C          59.6424   93.2910   -1.8267 C.ar    1  UNL1        0.0593
     31 C          58.9529   92.5332   -0.7311 C.ar    1  UNL1        0.0148
     32 C          59.5917   92.4232    0.6216 C.ar    1  UNL1        0.0039
     33 C          60.9199   93.0709    0.8788 C.ar    1  UNL1        0.0310
     34 C          61.5587   92.9609    2.2315 C.ar    1  UNL1        0.0493
     35 C          62.8870   93.6087    2.4886 C.ar    1  UNL1        0.0146
     36 C          63.5764   94.3665    1.3930 C.ar    1  UNL1        0.0028
     37 C          62.9377   94.4765    0.0403 C.ar    1  UNL1        0.0192
     38 C          61.6094   93.8288   -0.2168 C.ar    1  UNL1        0.0821
     39 N          60.9707   93.9388   -1.5696 N.ar    1  UNL1       -0.2496
@<TRIPOS>BOND
     1    29    30    1
     2    30    31   ar
     3    31    32   ar
     4    32    33   ar
     5    33    34   ar
     6    34    23    1
     7    23    24    1
     8    24    25    1
     9    25    26    1
    10    26    22    1
    11    22    21    1
    12    21     1    1
    13     1     2   ar
    14     2     3   ar
    15     3     4   ar
    16     4     5   ar
    17     5     6   ar
    18     6     7    1
    19     7     8    1
    20     8     9    1
    21     9    10   ar
    22    10    14    1
    23    14    15    2
    24    14    16   am
    25    16    18    1
    26    18    19    1
    27    19    20    1
    28    10    11   ar
    29    11    12   ar
    30    12    13   ar
    31    26    27    1
    32    27    28    1
    33    34    35   ar
    34    35    36   ar
    35    36    37   ar
    36    37    38   ar
    37    38    39   ar
    38    39    30   ar
    39    38    33   ar
    40    28    23    1
    41     6     1   ar
    42    13     9   ar
    43    13     5    1
    44    20    18    1
    45    16    17    1
@<TRIPOS>MOLECULE
*****
 39 45 0 0 0
SMALL
GASTEIGER

@<TRIPOS>ATOM
      1 C          60.8566   86.1134    8.2884 C.ar    1  UNL1        0.0146
      2 C          61.3540   85.5425    6.9936 C.ar    1  UNL1       -0.0011
      3 C          62.5122   84.5894    6.9899 C.ar    1  UNL1        0.0014
      4 C          63.1730   84.2071    8.2812 C.ar    1  UNL1        0.0206
      5 C          62.6756   84.7779    9.5760 C.ar    1  UNL1        0.0989
      6 C          61.5174   85.7311    9.5796 C.ar    1  UNL1        0.1511
      7 O          61.0199   86.3020   10.8745 O.3     1  UNL1       -0.4678
      8 C          61.6807   85.9197   12.1657 C.3     1  UNL1        0.2510
      9 C          62.8389   84.9665   12.1620 C.ar    1  UNL1        0.1087
     10 C          63.6839   84.4097   13.2692 C.ar    1  UNL1        0.1516
     11 N          64.7037   83.4946   12.6586 N.ar    1  UNL1       -0.2192
     12 C          64.4888   83.4859   11.1741 C.ar    1  UNL1        0.1828
     13 N          63.3363   84.3956   10.8672 N.ar    1  UNL1       -0.2851
     14 C          63.5354   84.7144   14.7304 C.2     1  UNL1        0.2648
     15 O          63.7328   83.6290   15.7467 O.2     1  UNL1       -0.2684
     16 N          63.1894   86.1045   15.1752 N.am    1  UNL1       -0.3012
     17 H          63.0598   86.8169   14.5081 H       1  UNL1        0.1497
     18 C          63.0408   86.4092   16.6364 C.3     1  UNL1        0.0720
     19 C          63.0492   87.3975   17.7647 C.3     1  UNL1        0.0213
     20 C          62.7750   85.9486   18.0390 C.3     1  UNL1        0.0213
     21 C          59.6984   87.0666    8.2921 C.3     1  UNL1        0.0468
     22 C          59.4984   87.9994    9.4496 C.3     1  UNL1        0.0770
     23 N          62.8355   90.7268   10.7440 N.pl3   1  UNL1       -0.3046
     24 C          63.1483   89.4472   10.0265 C.3     1  UNL1        0.1081
     25 C          62.0359   88.5380    9.5950 C.3     1  UNL1        0.0938
     26 N          60.6108   88.9085    9.8810 N.3     1  UNL1       -0.2695
     27 C          60.2981   90.1882   10.5985 C.3     1  UNL1        0.0938
     28 C          61.4104   91.0973   11.0300 C.3     1  UNL1        0.1081
     29 C          65.4175   92.0333   16.9790 C.3     1  UNL1        0.0521
     30 C          65.0501   91.9340   15.5281 C.ar    1  UNL1        0.0593
     31 C          63.9378   91.0249   15.0967 C.ar    1  UNL1        0.0148
     32 C          63.5703   90.9255   13.6458 C.ar    1  UNL1        0.0039
     33 C          64.3153   91.7352   12.6263 C.ar    1  UNL1        0.0310
     34 C          63.9479   91.6359   11.1754 C.ar    1  UNL1        0.0493
     35 C          64.6929   92.4456   10.1559 C.ar    1  UNL1        0.0146
     36 C          65.8052   93.3547   10.5873 C.ar    1  UNL1        0.0028
     37 C          66.1726   93.4541   12.0382 C.ar    1  UNL1        0.0192
     38 C          65.4277   92.6444   13.0577 C.ar    1  UNL1        0.0821
     39 N          65.7951   92.7438   14.5086 N.ar    1  UNL1       -0.2496
@<TRIPOS>BOND
     1    29    30    1
     2    30    31   ar
     3    31    32   ar
     4    32    33   ar
     5    33    34   ar
     6    34    23    1
     7    23    24    1
     8    24    25    1
     9    25    26    1
    10    26    22    1
    11    22    21    1
    12    21     1    1
    13     1     2   ar
    14     2     3   ar
    15     3     4   ar
    16     4     5   ar
    17     5     6   ar
    18     6     7    1
    19     7     8    1
    20     8     9    1
    21     9    10   ar
    22    10    14    1
    23    14    15    2
    24    14    16   am
    25    16    18    1
    26    18    19    1
    27    19    20    1
    28    10    11   ar
    29    11    12   ar
    30    12    13   ar
    31    26    27    1
    32    27    28    1
    33    34    35   ar
    34    35    36   ar
    35    36    37   ar
    36    37    38   ar
    37    38    39   ar
    38    39    30   ar
    39    38    33   ar
    40    28    23    1
    41     6     1   ar
    42    13     9   ar
    43    13     5    1
    44    20    18    1
    45    16    17    1
