@<TRIPOS>MOLECULE
*****
 44 47 0 0 0
SMALL
GASTEIGER

@<TRIPOS>ATOM
      1 C          63.7381   87.4165   15.5930 C.ar    1  UNL1        0.1134
      2 C          64.2785   88.1978   14.4321 C.ar    1  UNL1        0.1148
      3 N          63.8938   89.6352   14.6215 N.ar    1  UNL1       -0.2252
      4 N          63.1156   89.7423   15.8994 N.ar    1  UNL1       -0.0637
      5 N          63.0194   88.3711   16.4998 N.ar    1  UNL1       -0.1318
      6 C          63.8897   85.9400   15.8091 C.3     1  UNL1        0.0813
      7 C          65.0869   85.9307   14.9055 C.3     1  UNL1        0.0220
      8 C          61.3429   85.5784   16.1735 C.3     1  UNL1        0.0017
      9 C          62.6926   85.9493   16.7128 C.3     1  UNL1        0.0187
     10 C          62.8450   86.3295   18.1558 C.3     1  UNL1        0.0017
     11 N          64.0414   84.4634   16.0252 N.3     1  UNL1       -0.2914
     12 H          63.6996   84.2669   16.9660 H       1  UNL1        0.1238
     13 C          63.3569   83.4966   15.1051 C.3     1  UNL1        0.0958
     14 C          63.4138   83.7054   13.6207 C.ar    1  UNL1       -0.0063
     15 C          64.3302   82.8667   12.7800 C.ar    1  UNL1       -0.0014
     16 C          64.3871   83.0754   11.2957 C.ar    1  UNL1        0.0188
     17 C          63.5276   84.1229   10.6521 C.ar    1  UNL1        0.0813
     18 N          63.5845   84.3317    9.1678 N.ar    1  UNL1       -0.2438
     19 C          62.7250   85.3791    8.5243 C.ar    1  UNL1        0.0988
     20 C          61.8086   86.2178    9.3651 C.ar    1  UNL1        0.0207
     21 C          61.7517   86.0090   10.8494 C.ar    1  UNL1        0.0031
     22 C          62.6112   84.9616   11.4929 C.ar    1  UNL1        0.0174
     23 C          62.5543   84.7528   12.9772 C.ar    1  UNL1       -0.0014
     24 C          64.2285   90.7668   13.6955 C.3     1  UNL1        0.1693
     25 C          65.2895   91.7571   14.0743 C.2     1  UNL1        0.2166
     26 O          65.2443   92.4288   15.4147 O.2     1  UNL1       -0.2901
     27 C          66.3958   92.0757   13.1127 C.3     1  UNL1        0.2712
     28 O          66.6922   93.5023   12.7565 O.3     1  UNL1       -0.4627
     29 C          66.9683   93.8775   11.3306 C.ar    1  UNL1        0.1981
     30 C          67.7691   92.9598   10.4551 C.ar    1  UNL1        0.2034
     31 F          68.2937   91.6668   11.0055 F       1  UNL1       -0.1985
     32 C          68.0452   93.3350    9.0293 C.ar    1  UNL1        0.1728
     33 F          68.8459   92.4171    8.1539 F       1  UNL1       -0.2016
     34 C          67.5205   94.6279    8.4789 C.ar    1  UNL1        0.0641
     35 C          66.7197   95.5457    9.3544 C.ar    1  UNL1        0.1728
     36 F          66.1951   96.8387    8.8040 F       1  UNL1       -0.2016
     37 C          66.4436   95.1705   10.7802 C.ar    1  UNL1        0.2034
     38 F          65.6429   96.0883   11.6557 F       1  UNL1       -0.1985
     39 C          63.5023   90.9081   12.3907 C.3     1  UNL1        0.0574
     40 C          62.7844   89.7307   11.8004 C.3     1  UNL1        0.1533
     41 S          61.4512   89.9194   11.1392 S.O2    1  UNL1       -0.0082
     42 C          60.1182   90.1080   10.4780 C.3     1  UNL1        0.1760
     43 O          62.1337   90.4587    9.9172 O.2     1  UNL1       -0.1729
     44 O          60.7688   89.3800   12.3613 O.2     1  UNL1       -0.1729
@<TRIPOS>BOND
     1     8     9    1
     2     9    10    1
     3     9     6    1
     4     6     7    1
     5     6    11    1
     6    11    13    1
     7    13    14    1
     8    14    15   ar
     9    15    16   ar
    10    16    17   ar
    11    17    18   ar
    12    18    19   ar
    13    19    20   ar
    14    20    21   ar
    15    21    22   ar
    16    22    23   ar
    17     6     1    1
    18     1     2   ar
    19     2     3   ar
    20     3    24    1
    21    24    39    1
    22    39    40    1
    23    40    41    1
    24    41    42    1
    25    41    43    2
    26    41    44    2
    27    24    25    1
    28    25    26    2
    29    25    27    1
    30    27    28    1
    31    28    29    1
    32    29    30   ar
    33    30    31    1
    34    30    32   ar
    35    32    33    1
    36    32    34   ar
    37    34    35   ar
    38    35    36    1
    39    35    37   ar
    40    37    38    1
    41     3     4   ar
    42     4     5   ar
    43    23    14   ar
    44     5     1   ar
    45    22    17   ar
    46    37    29   ar
    47    11    12    1
@<TRIPOS>MOLECULE
*****
 44 47 0 0 0
SMALL
GASTEIGER

@<TRIPOS>ATOM
      1 C          63.8453   87.4060   15.5664 C.ar    1  UNL1        0.1134
      2 C          64.4600   88.1205   14.3995 C.ar    1  UNL1        0.1148
      3 N          64.1794   89.5860   14.5532 N.ar    1  UNL1       -0.2252
      4 N          63.3912   89.7772   15.8151 N.ar    1  UNL1       -0.0637
      5 N          63.1848   88.4299   16.4413 N.ar    1  UNL1       -0.1318
      6 C          63.8844   85.9273   15.8149 C.3     1  UNL1        0.0813
      7 C          65.0644   85.8042   14.8972 C.3     1  UNL1        0.0220
      8 C          61.3224   85.7743   16.2185 C.3     1  UNL1        0.0017
      9 C          62.7043   86.0503   16.7326 C.3     1  UNL1        0.0187
     10 C          62.9060   86.4494   18.1644 C.3     1  UNL1        0.0017
     11 N          63.9234   84.4485   16.0633 N.3     1  UNL1       -0.2914
     12 H          63.5614   84.2985   17.0050 H       1  UNL1        0.1238
     13 C          63.1747   83.5159   15.1579 C.3     1  UNL1        0.0958
     14 C          63.3031   83.6514   13.6696 C.ar    1  UNL1       -0.0063
     15 C          64.2268   82.7452   12.9109 C.ar    1  UNL1       -0.0014
     16 C          64.3553   82.8806   11.4226 C.ar    1  UNL1        0.0188
     17 C          63.5600   83.9223   10.6929 C.ar    1  UNL1        0.0813
     18 N          63.6885   84.0577    9.2045 N.ar    1  UNL1       -0.2438
     19 C          62.8932   85.0993    8.4749 C.ar    1  UNL1        0.0988
     20 C          61.9694   86.0055    9.2335 C.ar    1  UNL1        0.0207
     21 C          61.8410   85.8701   10.7218 C.ar    1  UNL1        0.0031
     22 C          62.6363   84.8285   11.4515 C.ar    1  UNL1        0.0174
     23 C          62.5078   84.6930   12.9399 C.ar    1  UNL1       -0.0014
     24 C          64.6110   90.6699   13.6104 C.3     1  UNL1        0.1693
     25 C          63.7653   91.0081   12.4186 C.2     1  UNL1        0.2166
     26 O          62.3600   90.4921   12.3255 O.2     1  UNL1       -0.2901
     27 C          64.3250   91.8623   11.3199 C.3     1  UNL1        0.2712
     28 O          65.1771   93.0506   11.6539 O.3     1  UNL1       -0.4627
     29 C          66.1693   93.5668   10.6543 C.ar    1  UNL1        0.1981
     30 C          65.9423   94.8910    9.9873 C.ar    1  UNL1        0.2034
     31 F          64.7231   95.6990   10.3199 F       1  UNL1       -0.1985
     32 C          66.9345   95.4072    8.9877 C.ar    1  UNL1        0.1728
     33 F          66.7073   96.7314    8.3207 F       1  UNL1       -0.2016
     34 C          68.1537   94.5992    8.6551 C.ar    1  UNL1        0.0641
     35 C          68.3807   93.2750    9.3222 C.ar    1  UNL1        0.1728
     36 F          69.5999   92.4670    8.9896 F       1  UNL1       -0.2016
     37 C          67.3885   92.7588   10.3218 C.ar    1  UNL1        0.2034
     38 F          67.6156   91.4346   10.9888 F       1  UNL1       -0.1985
     39 C          65.8884   91.4157   13.8595 C.3     1  UNL1        0.0574
     40 C          65.9673   92.4172   14.9735 C.3     1  UNL1        0.1533
     41 S          67.2892   93.0181   15.3497 S.O2    1  UNL1       -0.0082
     42 C          68.6110   93.6189   15.7260 C.3     1  UNL1        0.1760
     43 O          66.8791   93.0166   16.7926 O.2     1  UNL1       -0.1729
     44 O          67.6992   93.0195   13.9068 O.2     1  UNL1       -0.1729
@<TRIPOS>BOND
     1     8     9    1
     2     9    10    1
     3     9     6    1
     4     6     7    1
     5     6    11    1
     6    11    13    1
     7    13    14    1
     8    14    15   ar
     9    15    16   ar
    10    16    17   ar
    11    17    18   ar
    12    18    19   ar
    13    19    20   ar
    14    20    21   ar
    15    21    22   ar
    16    22    23   ar
    17     6     1    1
    18     1     2   ar
    19     2     3   ar
    20     3    24    1
    21    24    39    1
    22    39    40    1
    23    40    41    1
    24    41    42    1
    25    41    43    2
    26    41    44    2
    27    24    25    1
    28    25    26    2
    29    25    27    1
    30    27    28    1
    31    28    29    1
    32    29    30   ar
    33    30    31    1
    34    30    32   ar
    35    32    33    1
    36    32    34   ar
    37    34    35   ar
    38    35    36    1
    39    35    37   ar
    40    37    38    1
    41     3     4   ar
    42     4     5   ar
    43    23    14   ar
    44     5     1   ar
    45    22    17   ar
    46    37    29   ar
    47    11    12    1
@<TRIPOS>MOLECULE
*****
 44 47 0 0 0
SMALL
GASTEIGER

@<TRIPOS>ATOM
      1 C          64.1302   85.9321   14.9173 C.ar    1  UNL1        0.1134
      2 C          63.5025   85.3703   13.6762 C.ar    1  UNL1        0.1148
      3 N          64.1717   84.0634   13.3692 N.ar    1  UNL1       -0.2252
      4 N          65.2131   83.8176   14.4205 N.ar    1  UNL1       -0.0637
      5 N          65.1874   84.9725   15.3773 N.ar    1  UNL1       -0.1318
      6 C          63.7649   87.2263   15.5817 C.3     1  UNL1        0.0813
      7 C          64.5176   87.9807   14.5261 C.3     1  UNL1        0.0220
      8 C          62.9050   87.0302   18.0255 C.3     1  UNL1        0.0017
      9 C          63.0123   86.4720   16.6373 C.3     1  UNL1        0.0187
     10 C          62.3668   85.1593   16.3048 C.3     1  UNL1        0.0017
     11 N          63.3996   88.5206   16.2461 N.3     1  UNL1       -0.2914
     12 H          64.2397   88.8575   16.7164 H       1  UNL1        0.1238
     13 C          62.8746   89.6622   15.4269 C.3     1  UNL1        0.0958
     14 C          63.8288   90.6166   14.7721 C.ar    1  UNL1       -0.0063
     15 C          64.8329   91.3606   15.6017 C.ar    1  UNL1       -0.0014
     16 C          65.7870   92.3150   14.9469 C.ar    1  UNL1        0.0188
     17 C          65.7371   92.5253   13.4625 C.ar    1  UNL1        0.0813
     18 N          66.6912   93.4797   12.8078 N.ar    1  UNL1       -0.2438
     19 C          66.6413   93.6900   11.3235 C.ar    1  UNL1        0.0988
     20 C          65.6371   92.9460   10.4939 C.ar    1  UNL1        0.0207
     21 C          64.6830   91.9917   11.1487 C.ar    1  UNL1        0.0031
     22 C          64.7330   91.7813   12.6330 C.ar    1  UNL1        0.0174
     23 C          63.7788   90.8269   13.2878 C.ar    1  UNL1       -0.0014
     24 C          63.8552   83.1608   12.2137 C.3     1  UNL1        0.1693
     25 C          63.6689   83.7367   10.8413 C.2     1  UNL1        0.2166
     26 O          64.5706   83.3115    9.7206 O.2     1  UNL1       -0.2901
     27 C          62.5807   84.7380   10.5894 C.3     1  UNL1        0.2712
     28 O          62.7344   85.7538    9.4965 O.3     1  UNL1       -0.4627
     29 C          61.8389   86.9565    9.4590 C.ar    1  UNL1        0.1981
     30 C          62.0150   88.0545   10.4658 C.ar    1  UNL1        0.2034
     31 F          63.0866   87.9496   11.5100 F       1  UNL1       -0.1985
     32 C          61.1194   89.2572   10.4283 C.ar    1  UNL1        0.1728
     33 F          61.2956   90.3550   11.4351 F       1  UNL1       -0.2016
     34 C          60.0477   89.3620    9.3840 C.ar    1  UNL1        0.0641
     35 C          59.8716   88.2641    8.3773 C.ar    1  UNL1        0.1728
     36 F          58.7999   88.3689    7.3330 F       1  UNL1       -0.2016
     37 C          60.7672   87.0614    8.4148 C.ar    1  UNL1        0.2034
     38 F          60.5911   85.9634    7.4080 F       1  UNL1       -0.1985
     39 C          63.7250   81.6823   12.4306 C.3     1  UNL1        0.0574
     40 C          63.2473   81.1573   13.7520 C.3     1  UNL1        0.1533
     41 S          61.7914   80.8621   13.9599 S.O2    1  UNL1       -0.0082
     42 C          60.3355   80.5669   14.1678 C.3     1  UNL1        0.1760
     43 O          61.9627   79.5370   13.2780 O.2     1  UNL1       -0.1729
     44 O          61.6201   82.1872   14.6418 O.2     1  UNL1       -0.1729
@<TRIPOS>BOND
     1     8     9    1
     2     9    10    1
     3     9     6    1
     4     6     7    1
     5     6    11    1
     6    11    13    1
     7    13    14    1
     8    14    15   ar
     9    15    16   ar
    10    16    17   ar
    11    17    18   ar
    12    18    19   ar
    13    19    20   ar
    14    20    21   ar
    15    21    22   ar
    16    22    23   ar
    17     6     1    1
    18     1     2   ar
    19     2     3   ar
    20     3    24    1
    21    24    39    1
    22    39    40    1
    23    40    41    1
    24    41    42    1
    25    41    43    2
    26    41    44    2
    27    24    25    1
    28    25    26    2
    29    25    27    1
    30    27    28    1
    31    28    29    1
    32    29    30   ar
    33    30    31    1
    34    30    32   ar
    35    32    33    1
    36    32    34   ar
    37    34    35   ar
    38    35    36    1
    39    35    37   ar
    40    37    38    1
    41     3     4   ar
    42     4     5   ar
    43    23    14   ar
    44     5     1   ar
    45    22    17   ar
    46    37    29   ar
    47    11    12    1
@<TRIPOS>MOLECULE
*****
 44 47 0 0 0
SMALL
GASTEIGER

@<TRIPOS>ATOM
      1 C          63.7278   88.0940   15.7404 C.ar    1  UNL1        0.1134
      2 C          64.2600   88.6713   14.4623 C.ar    1  UNL1        0.1148
      3 N          64.1252   90.1634   14.5360 N.ar    1  UNL1       -0.2252
      4 N          63.5097   90.5083   15.8598 N.ar    1  UNL1       -0.0637
      5 N          63.2641   89.2294   16.6041 N.ar    1  UNL1       -0.1318
      6 C          63.6696   86.6372   16.0929 C.3     1  UNL1        0.0813
      7 C          64.7520   86.3524   15.0943 C.3     1  UNL1        0.0220
      8 C          61.2257   87.3422   16.6223 C.3     1  UNL1        0.0017
      9 C          62.5871   86.9221   17.0914 C.3     1  UNL1        0.0187
     10 C          62.8661   86.7869   18.5591 C.3     1  UNL1        0.0017
     11 N          63.6114   85.1804   16.4454 N.3     1  UNL1       -0.2914
     12 H          63.6689   85.1210   17.4620 H       1  UNL1        0.1238
     13 C          62.4301   84.3548   16.0295 C.3     1  UNL1        0.0958
     14 C          62.5221   83.4686   14.8226 C.ar    1  UNL1       -0.0063
     15 C          61.7763   82.1676   14.7889 C.ar    1  UNL1       -0.0014
     16 C          61.8682   81.2815   13.5822 C.ar    1  UNL1        0.0188
     17 C          62.7059   81.6964   12.4090 C.ar    1  UNL1        0.0813
     18 N          62.7978   80.8102   11.2023 N.ar    1  UNL1       -0.2438
     19 C          63.6355   81.2251   10.0292 C.ar    1  UNL1        0.0988
     20 C          64.3812   82.5262   10.0629 C.ar    1  UNL1        0.0207
     21 C          64.2893   83.4123   11.2697 C.ar    1  UNL1        0.0031
     22 C          63.4517   82.9974   12.4427 C.ar    1  UNL1        0.0174
     23 C          63.3597   83.8835   13.6496 C.ar    1  UNL1       -0.0014
     24 C          64.5341   91.1393   13.4728 C.3     1  UNL1        0.1693
     25 C          63.7758   91.2014   12.1801 C.2     1  UNL1        0.2166
     26 O          64.4895   91.5506   10.9079 O.2     1  UNL1       -0.2901
     27 C          62.3036   90.9142   12.1596 C.3     1  UNL1        0.2712
     28 O          61.8125   89.5041   12.3031 O.3     1  UNL1       -0.4627
     29 C          61.4893   88.6946   11.0823 C.ar    1  UNL1        0.1981
     30 C          60.5405   89.2347   10.0537 C.ar    1  UNL1        0.2034
     31 F          59.9148   90.5844   10.2459 F       1  UNL1       -0.1985
     32 C          60.2173   88.4252    8.8330 C.ar    1  UNL1        0.1728
     33 F          59.2684   88.9654    7.8045 F       1  UNL1       -0.2016
     34 C          60.8429   87.0755    8.6408 C.ar    1  UNL1        0.0641
     35 C          61.7918   86.5354    9.6694 C.ar    1  UNL1        0.1728
     36 F          62.4174   85.1857    9.4772 F       1  UNL1       -0.2016
     37 C          62.1150   87.3449   10.8901 C.ar    1  UNL1        0.2034
     38 F          63.0638   86.8048   11.9187 F       1  UNL1       -0.1985
     39 C          65.7013   92.0530   13.7022 C.3     1  UNL1        0.0574
     40 C          66.7941   91.6510   14.6478 C.3     1  UNL1        0.1533
     41 S          67.6610   92.6986   15.2811 S.O2    1  UNL1       -0.0082
     42 C          68.5279   93.7461   15.9144 C.3     1  UNL1        0.1760
     43 O          66.6782   92.8316   16.4065 O.2     1  UNL1       -0.1729
     44 O          68.6438   92.5655   14.1558 O.2     1  UNL1       -0.1729
@<TRIPOS>BOND
     1     8     9    1
     2     9    10    1
     3     9     6    1
     4     6     7    1
     5     6    11    1
     6    11    13    1
     7    13    14    1
     8    14    15   ar
     9    15    16   ar
    10    16    17   ar
    11    17    18   ar
    12    18    19   ar
    13    19    20   ar
    14    20    21   ar
    15    21    22   ar
    16    22    23   ar
    17     6     1    1
    18     1     2   ar
    19     2     3   ar
    20     3    24    1
    21    24    39    1
    22    39    40    1
    23    40    41    1
    24    41    42    1
    25    41    43    2
    26    41    44    2
    27    24    25    1
    28    25    26    2
    29    25    27    1
    30    27    28    1
    31    28    29    1
    32    29    30   ar
    33    30    31    1
    34    30    32   ar
    35    32    33    1
    36    32    34   ar
    37    34    35   ar
    38    35    36    1
    39    35    37   ar
    40    37    38    1
    41     3     4   ar
    42     4     5   ar
    43    23    14   ar
    44     5     1   ar
    45    22    17   ar
    46    37    29   ar
    47    11    12    1
@<TRIPOS>MOLECULE
*****
 44 47 0 0 0
SMALL
GASTEIGER

@<TRIPOS>ATOM
      1 C          63.7440   88.0781   15.7001 C.ar    1  UNL1        0.1134
      2 C          64.2569   88.6475   14.4107 C.ar    1  UNL1        0.1148
      3 N          64.0861   90.1369   14.4613 N.ar    1  UNL1       -0.2252
      4 N          63.4676   90.4880   15.7820 N.ar    1  UNL1       -0.0637
      5 N          63.2562   89.2155   16.5476 N.ar    1  UNL1       -0.1318
      6 C          63.7226   86.6261   16.0760 C.3     1  UNL1        0.0813
      7 C          64.8153   86.3536   15.0852 C.3     1  UNL1        0.0220
      8 C          62.9059   86.7876   18.5371 C.3     1  UNL1        0.0017
      9 C          62.6300   86.8987   17.0668 C.3     1  UNL1        0.0187
     10 C          61.2614   87.2825   16.5875 C.3     1  UNL1        0.0017
     11 N          63.7013   85.1742   16.4519 N.3     1  UNL1       -0.2914
     12 H          63.7851   85.1317   17.4675 H       1  UNL1        0.1238
     13 C          62.5263   84.3199   16.0783 C.3     1  UNL1        0.0958
     14 C          62.5904   83.4478   14.8596 C.ar    1  UNL1       -0.0063
     15 C          61.8104   82.1674   14.8117 C.ar    1  UNL1       -0.0014
     16 C          61.8745   81.2953   13.5930 C.ar    1  UNL1        0.0188
     17 C          62.7185   81.7035   12.4221 C.ar    1  UNL1        0.0813
     18 N          62.7826   80.8314   11.2034 N.ar    1  UNL1       -0.2438
     19 C          63.6266   81.2396   10.0326 C.ar    1  UNL1        0.0988
     20 C          64.4065   82.5200   10.0804 C.ar    1  UNL1        0.0207
     21 C          64.3425   83.3922   11.2991 C.ar    1  UNL1        0.0031
     22 C          63.4985   82.9839   12.4699 C.ar    1  UNL1        0.0174
     23 C          63.4344   83.8561   13.6887 C.ar    1  UNL1       -0.0014
     24 C          64.4669   91.1053   13.3809 C.3     1  UNL1        0.1693
     25 C          63.6704   91.1636   12.1112 C.2     1  UNL1        0.2166
     26 O          64.3392   91.5418   10.8230 O.2     1  UNL1       -0.2901
     27 C          62.2050   90.8437   12.1297 C.3     1  UNL1        0.2712
     28 O          61.7495   89.4217   12.2721 O.3     1  UNL1       -0.4627
     29 C          61.4391   88.6077   11.0510 C.ar    1  UNL1        0.1981
     30 C          62.0777   87.2635   10.8633 C.ar    1  UNL1        0.2034
     31 F          63.0268   86.7332   11.8967 F       1  UNL1       -0.1985
     32 C          61.7672   86.4495    9.6422 C.ar    1  UNL1        0.1728
     33 F          62.4059   85.1053    9.4547 F       1  UNL1       -0.2016
     34 C          60.8181   86.9797    8.6088 C.ar    1  UNL1        0.0641
     35 C          60.1794   88.3239    8.7965 C.ar    1  UNL1        0.1728
     36 F          59.2303   88.8542    7.7630 F       1  UNL1       -0.2016
     37 C          60.4899   89.1379   10.0176 C.ar    1  UNL1        0.2034
     38 F          59.8513   90.4821   10.2052 F       1  UNL1       -0.1985
     39 C          65.6442   92.0153   13.5701 C.3     1  UNL1        0.0574
     40 C          66.7751   91.6026   14.4650 C.3     1  UNL1        0.1533
     41 S          67.6019   92.6447   15.1580 S.O2    1  UNL1       -0.0082
     42 C          68.4287   93.6867   15.8511 C.3     1  UNL1        0.1760
     43 O          66.5663   92.7480   16.2383 O.2     1  UNL1       -0.1729
     44 O          68.6375   92.5413   14.0778 O.2     1  UNL1       -0.1729
@<TRIPOS>BOND
     1     8     9    1
     2     9    10    1
     3     9     6    1
     4     6     7    1
     5     6    11    1
     6    11    13    1
     7    13    14    1
     8    14    15   ar
     9    15    16   ar
    10    16    17   ar
    11    17    18   ar
    12    18    19   ar
    13    19    20   ar
    14    20    21   ar
    15    21    22   ar
    16    22    23   ar
    17     6     1    1
    18     1     2   ar
    19     2     3   ar
    20     3    24    1
    21    24    39    1
    22    39    40    1
    23    40    41    1
    24    41    42    1
    25    41    43    2
    26    41    44    2
    27    24    25    1
    28    25    26    2
    29    25    27    1
    30    27    28    1
    31    28    29    1
    32    29    30   ar
    33    30    31    1
    34    30    32   ar
    35    32    33    1
    36    32    34   ar
    37    34    35   ar
    38    35    36    1
    39    35    37   ar
    40    37    38    1
    41     3     4   ar
    42     4     5   ar
    43    23    14   ar
    44     5     1   ar
    45    22    17   ar
    46    37    29   ar
    47    11    12    1
@<TRIPOS>MOLECULE
*****
 44 47 0 0 0
SMALL
GASTEIGER

@<TRIPOS>ATOM
      1 C          62.2547   90.0998   10.7829 C.ar    1  UNL1        0.1134
      2 C          62.9199   90.1109   12.1273 C.ar    1  UNL1        0.1148
      3 N          63.8811   91.2620   12.1594 N.ar    1  UNL1       -0.2252
      4 N          63.8100   91.9624   10.8347 N.ar    1  UNL1       -0.0637
      5 N          62.8049   91.2440    9.9840 N.ar    1  UNL1       -0.1318
      6 C          61.2210   89.1170   10.3188 C.3     1  UNL1        0.0813
      7 C          62.1987   88.5560    9.3291 C.3     1  UNL1        0.0220
      8 C          59.8121   91.1110   11.2069 C.3     1  UNL1        0.0017
      9 C          60.2434   89.6779   11.3084 C.3     1  UNL1        0.0187
     10 C          59.6969   88.8058   12.3997 C.3     1  UNL1        0.0017
     11 N          60.1873   88.1341    9.8547 N.3     1  UNL1       -0.2914
     12 H          59.4356   88.6765    9.4289 H       1  UNL1        0.1238
     13 C          60.5584   87.0630    8.8724 C.3     1  UNL1        0.0958
     14 C          61.5505   86.0052    9.2555 C.ar    1  UNL1       -0.0063
     15 C          62.5454   85.5098    8.2480 C.ar    1  UNL1       -0.0014
     16 C          63.5375   84.4521    8.6310 C.ar    1  UNL1        0.0188
     17 C          63.5348   83.8895   10.0216 C.ar    1  UNL1        0.0813
     18 N          64.5269   82.8318   10.4046 N.ar    1  UNL1       -0.2438
     19 C          64.5243   82.2693   11.7951 C.ar    1  UNL1        0.0988
     20 C          63.5294   82.7646   12.8026 C.ar    1  UNL1        0.0207
     21 C          62.5373   83.8224   12.4196 C.ar    1  UNL1        0.0031
     22 C          62.5400   84.3848   11.0291 C.ar    1  UNL1        0.0174
     23 C          61.5479   85.4427   10.6460 C.ar    1  UNL1       -0.0014
     24 C          64.7592   91.6455   13.3134 C.3     1  UNL1        0.1693
     25 C          64.5220   91.0462   14.6679 C.2     1  UNL1        0.2166
     26 O          63.7307   91.8015   15.6941 O.2     1  UNL1       -0.2901
     27 C          65.0761   89.6915   14.9961 C.3     1  UNL1        0.2712
     28 O          64.4155   88.4592   14.4529 O.3     1  UNL1       -0.4627
     29 C          63.9506   87.3830   15.3887 C.ar    1  UNL1        0.1981
     30 C          64.1165   85.9401   15.0140 C.ar    1  UNL1        0.2034
     31 F          64.7472   85.5734   13.7034 F       1  UNL1       -0.1985
     32 C          63.6516   84.8639   15.9498 C.ar    1  UNL1        0.1728
     33 F          63.8175   83.4210   15.5749 F       1  UNL1       -0.2016
     34 C          63.0208   85.2306   17.2603 C.ar    1  UNL1        0.0641
     35 C          62.8550   86.6736   17.6351 C.ar    1  UNL1        0.1728
     36 F          62.2242   87.0403   18.9457 F       1  UNL1       -0.2016
     37 C          63.3199   87.7498   16.6993 C.ar    1  UNL1        0.2034
     38 F          63.1540   89.1927   17.0741 F       1  UNL1       -0.1985
     39 C          65.8745   92.6284   13.1131 C.3     1  UNL1        0.0574
     40 C          66.3847   93.4306   14.2732 C.3     1  UNL1        0.1533
     41 S          67.5551   92.9360   15.0704 S.O2    1  UNL1       -0.0082
     42 C          68.7255   92.4413   15.8676 C.3     1  UNL1        0.1760
     43 O          66.8031   93.2034   16.3405 O.2     1  UNL1       -0.1729
     44 O          68.3071   92.6685   13.8003 O.2     1  UNL1       -0.1729
@<TRIPOS>BOND
     1     8     9    1
     2     9    10    1
     3     9     6    1
     4     6     7    1
     5     6    11    1
     6    11    13    1
     7    13    14    1
     8    14    15   ar
     9    15    16   ar
    10    16    17   ar
    11    17    18   ar
    12    18    19   ar
    13    19    20   ar
    14    20    21   ar
    15    21    22   ar
    16    22    23   ar
    17     6     1    1
    18     1     2   ar
    19     2     3   ar
    20     3    24    1
    21    24    39    1
    22    39    40    1
    23    40    41    1
    24    41    42    1
    25    41    43    2
    26    41    44    2
    27    24    25    1
    28    25    26    2
    29    25    27    1
    30    27    28    1
    31    28    29    1
    32    29    30   ar
    33    30    31    1
    34    30    32   ar
    35    32    33    1
    36    32    34   ar
    37    34    35   ar
    38    35    36    1
    39    35    37   ar
    40    37    38    1
    41     3     4   ar
    42     4     5   ar
    43    23    14   ar
    44     5     1   ar
    45    22    17   ar
    46    37    29   ar
    47    11    12    1
@<TRIPOS>MOLECULE
*****
 44 47 0 0 0
SMALL
GASTEIGER

@<TRIPOS>ATOM
      1 C          62.2413   90.0772   11.0650 C.ar    1  UNL1        0.1134
      2 C          62.5607   89.7571   12.4952 C.ar    1  UNL1        0.1148
      3 N          63.5858   90.7424   12.9730 N.ar    1  UNL1       -0.2252
      4 N          63.9001   91.6715   11.8380 N.ar    1  UNL1       -0.0637
      5 N          63.0690   91.2604   10.6588 N.ar    1  UNL1       -0.1318
      6 C          61.2654   89.3431   10.1940 C.3     1  UNL1        0.0813
      7 C          62.3824   88.9515    9.2727 C.3     1  UNL1        0.0220
      8 C          59.5764   88.7294   12.0703 C.3     1  UNL1        0.0017
      9 C          60.1484   89.7348   11.1153 C.3     1  UNL1        0.0187
     10 C          59.6033   91.1319   11.0816 C.3     1  UNL1        0.0017
     11 N          60.2896   88.6090    9.3229 N.3     1  UNL1       -0.2914
     12 H          60.6377   88.6793    8.3667 H       1  UNL1        0.1238
     13 C          60.0040   87.1581    9.5742 C.3     1  UNL1        0.0958
     14 C          61.1363   86.1924    9.7622 C.ar    1  UNL1       -0.0063
     15 C          61.9471   85.7481    8.5810 C.ar    1  UNL1       -0.0014
     16 C          63.0794   84.7824    8.7690 C.ar    1  UNL1        0.0188
     17 C          63.4010   84.2610   10.1382 C.ar    1  UNL1        0.0813
     18 N          64.5333   83.2954   10.3262 N.ar    1  UNL1       -0.2438
     19 C          64.8549   82.7741   11.6954 C.ar    1  UNL1        0.0988
     20 C          64.0442   83.2184   12.8766 C.ar    1  UNL1        0.0207
     21 C          62.9119   84.1840   12.6887 C.ar    1  UNL1        0.0031
     22 C          62.5903   84.7053   11.3195 C.ar    1  UNL1        0.0174
     23 C          61.4579   85.6710   11.1314 C.ar    1  UNL1       -0.0014
     24 C          64.1907   90.7902   14.3448 C.3     1  UNL1        0.1693
     25 C          65.3077   91.7470   14.6390 C.2     1  UNL1        0.2166
     26 O          65.4007   92.4000   15.9862 O.2     1  UNL1       -0.2901
     27 C          66.3318   92.0510   13.5860 C.3     1  UNL1        0.2712
     28 O          66.5257   93.4613   13.1133 O.3     1  UNL1       -0.4627
     29 C          66.8617   93.7311   11.6765 C.ar    1  UNL1        0.1981
     30 C          67.6167   92.7100   10.8782 C.ar    1  UNL1        0.2034
     31 F          68.0356   91.4189   11.5167 F       1  UNL1       -0.1985
     32 C          67.9527   92.9799    9.4414 C.ar    1  UNL1        0.1728
     33 F          68.7076   91.9586    8.6432 F       1  UNL1       -0.2016
     34 C          67.5337   94.2709    8.8030 C.ar    1  UNL1        0.0641
     35 C          66.7788   95.2921    9.6012 C.ar    1  UNL1        0.1728
     36 F          66.3599   96.5831    8.9628 F       1  UNL1       -0.2016
     37 C          66.4428   95.0222   11.0380 C.ar    1  UNL1        0.2034
     38 F          65.6878   96.0433   11.8363 F       1  UNL1       -0.1985
     39 C          63.6784   89.8812   15.4224 C.3     1  UNL1        0.0574
     40 C          63.9445   88.4067   15.3492 C.3     1  UNL1        0.1533
     41 S          63.3683   87.4882   16.3857 S.O2    1  UNL1       -0.0082
     42 C          62.7922   86.5698   17.4222 C.3     1  UNL1        0.1760
     43 O          63.1819   88.6521   17.3135 O.2     1  UNL1       -0.1729
     44 O          63.5547   86.3244   15.4580 O.2     1  UNL1       -0.1729
@<TRIPOS>BOND
     1     8     9    1
     2     9    10    1
     3     9     6    1
     4     6     7    1
     5     6    11    1
     6    11    13    1
     7    13    14    1
     8    14    15   ar
     9    15    16   ar
    10    16    17   ar
    11    17    18   ar
    12    18    19   ar
    13    19    20   ar
    14    20    21   ar
    15    21    22   ar
    16    22    23   ar
    17     6     1    1
    18     1     2   ar
    19     2     3   ar
    20     3    24    1
    21    24    39    1
    22    39    40    1
    23    40    41    1
    24    41    42    1
    25    41    43    2
    26    41    44    2
    27    24    25    1
    28    25    26    2
    29    25    27    1
    30    27    28    1
    31    28    29    1
    32    29    30   ar
    33    30    31    1
    34    30    32   ar
    35    32    33    1
    36    32    34   ar
    37    34    35   ar
    38    35    36    1
    39    35    37   ar
    40    37    38    1
    41     3     4   ar
    42     4     5   ar
    43    23    14   ar
    44     5     1   ar
    45    22    17   ar
    46    37    29   ar
    47    11    12    1
@<TRIPOS>MOLECULE
*****
 44 47 0 0 0
SMALL
GASTEIGER

@<TRIPOS>ATOM
      1 C          63.6594   87.9971   15.9698 C.ar    1  UNL1        0.1134
      2 C          64.3509   88.7345   14.8616 C.ar    1  UNL1        0.1148
      3 N          64.1923   90.2046   15.1135 N.ar    1  UNL1       -0.2252
      4 N          63.4029   90.3759   16.3774 N.ar    1  UNL1       -0.0637
      5 N          63.0736   89.0116   16.9067 N.ar    1  UNL1       -0.1318
      6 C          63.5697   86.5069   16.1156 C.3     1  UNL1        0.0813
      7 C          62.7678   86.6782   17.3717 C.3     1  UNL1        0.0220
      8 C          65.7009   85.6426   14.9071 C.3     1  UNL1        0.0017
      9 C          64.3715   86.3357   14.8596 C.3     1  UNL1        0.0187
     10 C          63.8439   86.8577   13.5560 C.3     1  UNL1        0.0017
     11 N          63.4799   85.0168   16.2614 N.3     1  UNL1       -0.2914
     12 H          63.5725   84.8122   17.2564 H       1  UNL1        0.1238
     13 C          62.2597   84.2884   15.7813 C.3     1  UNL1        0.0958
     14 C          62.3691   83.3022   14.6563 C.ar    1  UNL1       -0.0063
     15 C          61.7553   81.9402   14.7905 C.ar    1  UNL1       -0.0014
     16 C          61.8646   80.9540   13.6656 C.ar    1  UNL1        0.0188
     17 C          62.5878   81.3300   12.4063 C.ar    1  UNL1        0.0813
     18 N          62.6972   80.3438   11.2813 N.ar    1  UNL1       -0.2438
     19 C          63.4203   80.7198   10.0221 C.ar    1  UNL1        0.0988
     20 C          64.0341   82.0819    9.8879 C.ar    1  UNL1        0.0207
     21 C          63.9248   83.0680   11.0128 C.ar    1  UNL1        0.0031
     22 C          63.2016   82.6920   12.2720 C.ar    1  UNL1        0.0174
     23 C          63.0922   83.6782   13.3971 C.ar    1  UNL1       -0.0014
     24 C          64.7290   91.3096   14.2526 C.3     1  UNL1        0.1693
     25 C          65.5929   92.3776   14.8551 C.2     1  UNL1        0.2166
     26 O          65.4931   92.6855   16.3196 O.2     1  UNL1       -0.2901
     27 C          66.5568   93.1377   13.9929 C.3     1  UNL1        0.2712
     28 O          66.0620   94.2472   13.1131 O.3     1  UNL1       -0.4627
     29 C          66.4834   94.3086   11.6748 C.ar    1  UNL1        0.1981
     30 C          67.1535   93.1270   11.0385 C.ar    1  UNL1        0.2034
     31 F          67.4020   91.8840   11.8404 F       1  UNL1       -0.1985
     32 C          67.5749   93.1884    9.6002 C.ar    1  UNL1        0.1728
     33 F          68.2450   92.0067    8.9640 F       1  UNL1       -0.2016
     34 C          67.3264   94.4314    8.7982 C.ar    1  UNL1        0.0641
     35 C          66.6563   95.6130    9.4345 C.ar    1  UNL1        0.1728
     36 F          66.4077   96.8560    8.6326 F       1  UNL1       -0.2016
     37 C          66.2349   95.5516   10.8728 C.ar    1  UNL1        0.2034
     38 F          65.5648   96.7332   11.5091 F       1  UNL1       -0.1985
     39 C          64.4017   91.3465   12.7892 C.3     1  UNL1        0.0574
     40 C          62.9791   91.2060   12.3349 C.3     1  UNL1        0.1533
     41 S          62.5786   90.0472   11.4707 S.O2    1  UNL1       -0.0082
     42 C          62.1782   88.8886   10.6064 C.3     1  UNL1        0.1760
     43 O          63.4338   90.5805   10.3596 O.2     1  UNL1       -0.1729
     44 O          61.7235   89.5141   12.5818 O.2     1  UNL1       -0.1729
@<TRIPOS>BOND
     1     8     9    1
     2     9    10    1
     3     9     6    1
     4     6     7    1
     5     6    11    1
     6    11    13    1
     7    13    14    1
     8    14    15   ar
     9    15    16   ar
    10    16    17   ar
    11    17    18   ar
    12    18    19   ar
    13    19    20   ar
    14    20    21   ar
    15    21    22   ar
    16    22    23   ar
    17     6     1    1
    18     1     2   ar
    19     2     3   ar
    20     3    24    1
    21    24    39    1
    22    39    40    1
    23    40    41    1
    24    41    42    1
    25    41    43    2
    26    41    44    2
    27    24    25    1
    28    25    26    2
    29    25    27    1
    30    27    28    1
    31    28    29    1
    32    29    30   ar
    33    30    31    1
    34    30    32   ar
    35    32    33    1
    36    32    34   ar
    37    34    35   ar
    38    35    36    1
    39    35    37   ar
    40    37    38    1
    41     3     4   ar
    42     4     5   ar
    43    23    14   ar
    44     5     1   ar
    45    22    17   ar
    46    37    29   ar
    47    11    12    1
@<TRIPOS>MOLECULE
*****
 44 47 0 0 0
SMALL
GASTEIGER

@<TRIPOS>ATOM
      1 C          62.3282   90.1972   10.8315 C.ar    1  UNL1        0.1134
      2 C          63.1379   90.2523   12.0930 C.ar    1  UNL1        0.1148
      3 N          64.0981   91.3989   11.9778 N.ar    1  UNL1       -0.2252
      4 N          63.8819   92.0525   10.6451 N.ar    1  UNL1       -0.0637
      5 N          62.7881   91.3098    9.9367 N.ar    1  UNL1       -0.1318
      6 C          61.2484   89.2040   10.5197 C.3     1  UNL1        0.0813
      7 C          62.1317   88.5675    9.4880 C.3     1  UNL1        0.0220
      8 C          60.3403   89.3038   12.9518 C.3     1  UNL1        0.0017
      9 C          60.3650   89.8405   11.5514 C.3     1  UNL1        0.0187
     10 C          59.5062   91.0139   11.1826 C.3     1  UNL1        0.0017
     11 N          60.1685   88.2108   10.2078 N.3     1  UNL1       -0.2914
     12 H          59.3668   88.7436    9.8704 H       1  UNL1        0.1238
     13 C          60.4173   87.1220    9.2064 C.3     1  UNL1        0.0958
     14 C          61.4447   86.0656    9.4868 C.ar    1  UNL1       -0.0063
     15 C          62.3682   85.6094    8.3964 C.ar    1  UNL1       -0.0014
     16 C          63.3955   84.5531    8.6767 C.ar    1  UNL1        0.0188
     17 C          63.4994   83.9529   10.0475 C.ar    1  UNL1        0.0813
     18 N          64.5268   82.8965   10.3279 N.ar    1  UNL1       -0.2438
     19 C          64.6306   82.2964   11.6986 C.ar    1  UNL1        0.0988
     20 C          63.7071   82.7526   12.7890 C.ar    1  UNL1        0.0207
     21 C          62.6798   83.8089   12.5087 C.ar    1  UNL1        0.0031
     22 C          62.5759   84.4091   11.1380 C.ar    1  UNL1        0.0174
     23 C          61.5485   85.4655   10.8576 C.ar    1  UNL1       -0.0014
     24 C          65.0989   91.8183   13.0135 C.3     1  UNL1        0.1693
     25 C          64.9967   91.2885   14.4131 C.2     1  UNL1        0.2166
     26 O          64.6273   92.2089   15.5383 O.2     1  UNL1       -0.2901
     27 C          65.2639   89.8382   14.6874 C.3     1  UNL1        0.2712
     28 O          64.2352   88.8058   14.3327 O.3     1  UNL1       -0.4627
     29 C          63.8735   87.7369   15.3209 C.ar    1  UNL1        0.1981
     30 C          63.3313   88.1132   16.6679 C.ar    1  UNL1        0.2034
     31 F          63.1509   89.5585   17.0267 F       1  UNL1       -0.1985
     32 C          62.9696   87.0443   17.6562 C.ar    1  UNL1        0.1728
     33 F          62.4275   87.4208   19.0032 F       1  UNL1       -0.2016
     34 C          63.1501   85.5991   17.2975 C.ar    1  UNL1        0.0641
     35 C          63.6922   85.2228   15.9505 C.ar    1  UNL1        0.1728
     36 F          63.8726   83.7775   15.5917 F       1  UNL1       -0.2016
     37 C          64.0539   86.2917   14.9622 C.ar    1  UNL1        0.2034
     38 F          64.5960   85.9153   13.6152 F       1  UNL1       -0.1985
     39 C          66.2019   92.7675   12.6496 C.3     1  UNL1        0.0574
     40 C          67.2545   92.3522   11.6649 C.3     1  UNL1        0.1533
     41 S          67.4830   93.1637   10.4243 S.O2    1  UNL1       -0.0082
     42 C          67.7114   93.9752    9.1837 C.3     1  UNL1        0.1760
     43 O          66.8997   94.3670   11.1040 O.2     1  UNL1       -0.1729
     44 O          68.0662   91.9604    9.7446 O.2     1  UNL1       -0.1729
@<TRIPOS>BOND
     1     8     9    1
     2     9    10    1
     3     9     6    1
     4     6     7    1
     5     6    11    1
     6    11    13    1
     7    13    14    1
     8    14    15   ar
     9    15    16   ar
    10    16    17   ar
    11    17    18   ar
    12    18    19   ar
    13    19    20   ar
    14    20    21   ar
    15    21    22   ar
    16    22    23   ar
    17     6     1    1
    18     1     2   ar
    19     2     3   ar
    20     3    24    1
    21    24    39    1
    22    39    40    1
    23    40    41    1
    24    41    42    1
    25    41    43    2
    26    41    44    2
    27    24    25    1
    28    25    26    2
    29    25    27    1
    30    27    28    1
    31    28    29    1
    32    29    30   ar
    33    30    31    1
    34    30    32   ar
    35    32    33    1
    36    32    34   ar
    37    34    35   ar
    38    35    36    1
    39    35    37   ar
    40    37    38    1
    41     3     4   ar
    42     4     5   ar
    43    23    14   ar
    44     5     1   ar
    45    22    17   ar
    46    37    29   ar
    47    11    12    1
