@<TRIPOS>MOLECULE
*****
 35 39 0 0 0
SMALL
GASTEIGER

@<TRIPOS>ATOM
      1 C          59.7399   91.1417    5.1530 C.ar    1  UNL1       -0.0025
      2 C          61.1738   90.7942    4.8825 C.ar    1  UNL1       -0.0013
      3 C          61.8632   91.3453    3.6696 C.ar    1  UNL1        0.0181
      4 C          61.1186   92.2438    2.7271 C.ar    1  UNL1        0.1056
      5 C          59.6846   92.5913    2.9976 C.ar    1  UNL1        0.0181
      6 C          58.9953   92.0402    4.2105 C.ar    1  UNL1       -0.0013
      7 S          61.8079   92.7948    1.5142 S.O2    1  UNL1        0.0071
      8 O          60.5650   93.5524    1.1520 O.2     1  UNL1       -0.1687
      9 O          63.0508   92.0372    1.8764 O.2     1  UNL1       -0.1687
     10 C          62.4972   93.3458    0.3013 C.3     1  UNL1        0.1366
     11 C          63.8173   94.0443    0.4413 C.3     1  UNL1        0.0413
     12 C          64.5066   94.5953   -0.7716 C.3     1  UNL1        0.0738
     13 N          63.8758   94.4480   -2.1246 N.3     1  UNL1       -0.2737
     14 C          62.5558   93.7496   -2.2646 C.3     1  UNL1        0.0738
     15 C          61.8664   93.1985   -1.0517 C.3     1  UNL1        0.0413
     16 C          64.5651   94.9990   -3.3375 C.3     1  UNL1        0.0625
     17 C          64.5195   94.2451   -4.6335 C.3     1  UNL1        0.0481
     18 C          65.2087   94.7961   -5.8464 C.3     1  UNL1        0.1435
     19 O          65.9437   96.1010   -5.7634 O.3     1  UNL1       -0.3537
     20 C          65.9894   96.8550   -4.4675 C.3     1  UNL1        0.1435
     21 C          65.3001   96.3039   -3.2545 C.3     1  UNL1        0.0481
     22 C          59.0505   90.5907    6.3659 C.3     1  UNL1        0.1167
     23 O          58.7284   87.7038    7.1153 O.2     1  UNL1       -0.2668
     24 C          59.6973   88.5695    7.8647 C.2     1  UNL1        0.2808
     25 N          59.8584   90.0129    7.4900 N.am    1  UNL1       -0.2944
     26 H          60.4943   90.5812    7.9819 H       1  UNL1        0.1501
     27 C          60.5051   87.9917    8.9888 C.ar    1  UNL1        0.1984
     28 C          60.6278   86.5360    9.3290 C.ar    1  UNL1        0.0453
     29 C          61.5306   86.4128   10.5206 C.ar    1  UNL1        0.0409
     30 C          62.0125   85.2227   11.2959 C.ar    1  UNL1        0.0238
     31 C          62.9297   85.4122   12.4675 C.ar    1  UNL1        0.0991
     32 N          63.3649   86.7918   12.8639 N.ar    1  UNL1       -0.2391
     33 C          62.8830   87.9820   12.0885 C.ar    1  UNL1        0.1362
     34 C          61.9658   87.7925   10.9169 C.ar    1  UNL1        0.1646
     35 O          61.3320   88.7683    9.9702 O.2     1  UNL1       -0.4473
@<TRIPOS>BOND
     1    23    24    2
     2    24    25   am
     3    25    22    1
     4    22     1    1
     5     1     2   ar
     6     2     3   ar
     7     3     4   ar
     8     4     7    1
     9     7     8    2
    10     7     9    2
    11     7    10    1
    12    10    11    1
    13    11    12    1
    14    12    13    1
    15    13    16    1
    16    16    17    1
    17    17    18    1
    18    18    19    1
    19    19    20    1
    20    20    21    1
    21    13    14    1
    22    14    15    1
    23     4     5   ar
    24     5     6   ar
    25    24    27    1
    26    27    28   ar
    27    28    29   ar
    28    29    30   ar
    29    30    31   ar
    30    31    32   ar
    31    32    33   ar
    32    33    34   ar
    33    34    35   ar
    34     6     1   ar
    35    35    27   ar
    36    15    10    1
    37    34    29   ar
    38    21    16    1
    39    25    26    1
@<TRIPOS>MOLECULE
*****
 35 39 0 0 0
SMALL
GASTEIGER

@<TRIPOS>ATOM
      1 C          59.6004   90.8567    5.5681 C.ar    1  UNL1       -0.0025
      2 C          61.0385   90.6954    5.1736 C.ar    1  UNL1       -0.0013
      3 C          61.5553   91.3620    3.9331 C.ar    1  UNL1        0.0181
      4 C          60.6338   92.1898    3.0872 C.ar    1  UNL1        0.1056
      5 C          59.1956   92.3511    3.4818 C.ar    1  UNL1        0.0181
      6 C          58.6789   91.6845    4.7222 C.ar    1  UNL1       -0.0013
      7 S          61.1505   92.8564    1.8468 S.O2    1  UNL1        0.0071
      8 O          62.5179   92.9346    2.4584 O.2     1  UNL1       -0.1687
      9 O          59.7831   92.7782    1.2352 O.2     1  UNL1       -0.1687
     10 C          61.6672   93.5230    0.6064 C.3     1  UNL1        0.1366
     11 C          63.1381   93.5233    0.3123 C.3     1  UNL1        0.0413
     12 C          63.6548   94.1899   -0.9282 C.3     1  UNL1        0.0738
     13 N          62.7006   94.8561   -1.8745 N.3     1  UNL1       -0.2737
     14 C          61.2297   94.8558   -1.5805 C.3     1  UNL1        0.0738
     15 C          60.7130   94.1892   -0.3400 C.3     1  UNL1        0.0413
     16 C          63.2173   95.5227   -3.1150 C.3     1  UNL1        0.0625
     17 C          62.2581   96.1337   -4.0931 C.3     1  UNL1        0.0481
     18 C          62.7748   96.8002   -5.3335 C.3     1  UNL1        0.1435
     19 O          64.2506   96.8558   -5.5959 O.3     1  UNL1       -0.3537
     20 C          65.2098   96.2449   -4.6178 C.3     1  UNL1        0.1435
     21 C          64.6931   95.5783   -3.3773 C.3     1  UNL1        0.0481
     22 C          59.0836   90.1901    6.8086 C.3     1  UNL1        0.1167
     23 O          58.2653   87.3715    7.4296 O.2     1  UNL1       -0.2668
     24 C          59.5782   87.8985    7.9283 C.2     1  UNL1        0.2808
     25 N          59.9873   89.3078    7.6178 N.am    1  UNL1       -0.2944
     26 H          60.8490   89.6537    7.9451 H       1  UNL1        0.1501
     27 C          60.4818   87.0161    8.7375 C.ar    1  UNL1        0.1984
     28 C          61.5073   86.0671    8.1919 C.ar    1  UNL1        0.0453
     29 C          62.1780   85.3923    9.3516 C.ar    1  UNL1        0.0409
     30 C          63.2661   84.3622    9.4212 C.ar    1  UNL1        0.0238
     31 C          63.7432   83.8641   10.7532 C.ar    1  UNL1        0.0991
     32 N          63.1321   84.3961   12.0156 N.ar    1  UNL1       -0.2391
     33 C          62.0440   85.4262   11.9460 C.ar    1  UNL1        0.1362
     34 C          61.5670   85.9243   10.6140 C.ar    1  UNL1        0.1646
     35 O          60.5187   86.9279   10.2345 O.2     1  UNL1       -0.4473
@<TRIPOS>BOND
     1    23    24    2
     2    24    25   am
     3    25    22    1
     4    22     1    1
     5     1     2   ar
     6     2     3   ar
     7     3     4   ar
     8     4     7    1
     9     7     8    2
    10     7     9    2
    11     7    10    1
    12    10    11    1
    13    11    12    1
    14    12    13    1
    15    13    16    1
    16    16    17    1
    17    17    18    1
    18    18    19    1
    19    19    20    1
    20    20    21    1
    21    13    14    1
    22    14    15    1
    23     4     5   ar
    24     5     6   ar
    25    24    27    1
    26    27    28   ar
    27    28    29   ar
    28    29    30   ar
    29    30    31   ar
    30    31    32   ar
    31    32    33   ar
    32    33    34   ar
    33    34    35   ar
    34     6     1   ar
    35    35    27   ar
    36    15    10    1
    37    34    29   ar
    38    21    16    1
    39    25    26    1
@<TRIPOS>MOLECULE
*****
 35 39 0 0 0
SMALL
GASTEIGER

@<TRIPOS>ATOM
      1 C          58.7066   91.0616    5.1897 C.ar    1  UNL1       -0.0025
      2 C          60.1899   90.9977    5.4030 C.ar    1  UNL1       -0.0013
      3 C          60.7635   90.0354    6.4005 C.ar    1  UNL1        0.0181
      4 C          59.8537   89.1370    7.1848 C.ar    1  UNL1        0.1056
      5 C          58.3702   89.2009    6.9715 C.ar    1  UNL1        0.0181
      6 C          57.7967   90.1632    5.9740 C.ar    1  UNL1       -0.0013
      7 S          60.4272   88.1747    8.1823 S.O2    1  UNL1        0.0071
      8 O          59.9101   87.0246    7.3701 O.2     1  UNL1       -0.1687
      9 O          60.9442   89.3249    8.9946 O.2     1  UNL1       -0.1687
     10 C          61.0007   87.2125    9.1798 C.3     1  UNL1        0.1366
     11 C          60.6645   87.3515   10.6351 C.3     1  UNL1        0.0413
     12 C          61.2380   86.3893   11.6326 C.3     1  UNL1        0.0738
     13 N          62.1477   85.2879   11.1750 N.3     1  UNL1       -0.2737
     14 C          62.4838   85.1488    9.7198 C.3     1  UNL1        0.0738
     15 C          61.9103   86.1111    8.7222 C.3     1  UNL1        0.0413
     16 C          62.7212   84.3256   12.1725 C.3     1  UNL1        0.0625
     17 C          63.2948   84.8348   13.4617 C.3     1  UNL1        0.0481
     18 C          63.8683   83.8725   14.4592 C.3     1  UNL1        0.1435
     19 O          63.8682   82.4011   14.1677 O.3     1  UNL1       -0.3537
     20 C          63.2946   81.8920   12.8786 C.3     1  UNL1        0.1435
     21 C          62.7211   82.8543   11.8810 C.3     1  UNL1        0.0481
     22 C          58.1330   92.0239    4.1921 C.3     1  UNL1        0.1167
     23 O          59.9860   94.2945    3.5518 O.2     1  UNL1       -0.2668
     24 C          59.6645   93.2706    2.5039 C.2     1  UNL1        0.2808
     25 N          58.7379   92.1353    2.8240 N.am    1  UNL1       -0.2944
     26 H          58.5269   91.4632    2.1363 H       1  UNL1        0.1501
     27 C          60.2694   93.3820    1.1358 C.ar    1  UNL1        0.1984
     28 C          61.7349   93.3722    0.8163 C.ar    1  UNL1        0.0453
     29 C          61.8863   93.5069   -0.6700 C.ar    1  UNL1        0.0409
     30 C          63.0962   93.5568   -1.5552 C.ar    1  UNL1        0.0238
     31 C          62.9340   93.6999   -3.0395 C.ar    1  UNL1        0.0991
     32 N          61.5620   93.7930   -3.6386 N.ar    1  UNL1       -0.2391
     33 C          60.3522   93.7431   -2.7533 C.ar    1  UNL1        0.1362
     34 C          60.5143   93.6000   -1.2690 C.ar    1  UNL1        0.1646
     35 O          59.5150   93.5228   -0.1530 O.2     1  UNL1       -0.4473
@<TRIPOS>BOND
     1    23    24    2
     2    24    25   am
     3    25    22    1
     4    22     1    1
     5     1     2   ar
     6     2     3   ar
     7     3     4   ar
     8     4     7    1
     9     7     8    2
    10     7     9    2
    11     7    10    1
    12    10    11    1
    13    11    12    1
    14    12    13    1
    15    13    16    1
    16    16    17    1
    17    17    18    1
    18    18    19    1
    19    19    20    1
    20    20    21    1
    21    13    14    1
    22    14    15    1
    23     4     5   ar
    24     5     6   ar
    25    24    27    1
    26    27    28   ar
    27    28    29   ar
    28    29    30   ar
    29    30    31   ar
    30    31    32   ar
    31    32    33   ar
    32    33    34   ar
    33    34    35   ar
    34     6     1   ar
    35    35    27   ar
    36    15    10    1
    37    34    29   ar
    38    21    16    1
    39    25    26    1
@<TRIPOS>MOLECULE
*****
 35 39 0 0 0
SMALL
GASTEIGER

@<TRIPOS>ATOM
      1 C          59.5035   90.1858    6.5465 C.ar    1  UNL1       -0.0025
      2 C          60.8682   90.2950    5.9335 C.ar    1  UNL1       -0.0013
      3 C          61.0533   91.0353    4.6421 C.ar    1  UNL1        0.0181
      4 C          59.8737   91.6664    3.9637 C.ar    1  UNL1        0.1056
      5 C          58.5090   91.5572    4.5767 C.ar    1  UNL1        0.0181
      6 C          58.3239   90.8169    5.8681 C.ar    1  UNL1       -0.0013
      7 S          60.0587   92.4067    2.6723 S.O2    1  UNL1        0.0071
      8 O          58.5883   92.6998    2.6296 O.2     1  UNL1       -0.1687
      9 O          61.5291   92.1136    2.7149 O.2     1  UNL1       -0.1687
     10 C          60.2437   93.1469    1.3809 C.3     1  UNL1        0.1366
     11 C          61.6003   93.6605    0.9985 C.3     1  UNL1        0.0413
     12 C          61.7853   94.4008   -0.2929 C.3     1  UNL1        0.0738
     13 N          60.6139   94.6275   -1.2019 N.3     1  UNL1       -0.2737
     14 C          59.2574   94.1140   -0.8196 C.3     1  UNL1        0.0738
     15 C          59.0723   93.3736    0.4718 C.3     1  UNL1        0.0413
     16 C          60.7989   95.3678   -2.4933 C.3     1  UNL1        0.0625
     17 C          59.6503   95.5099   -3.4476 C.3     1  UNL1        0.0481
     18 C          59.8354   96.2502   -4.7390 C.3     1  UNL1        0.1435
     19 O          61.1690   96.8484   -5.0762 O.3     1  UNL1       -0.3537
     20 C          62.3175   96.7063   -4.1220 C.3     1  UNL1        0.1435
     21 C          62.1325   95.9660   -2.8305 C.3     1  UNL1        0.0481
     22 C          59.3184   89.4455    7.8380 C.3     1  UNL1        0.1167
     23 O          61.5609   87.6260    8.6507 O.2     1  UNL1       -0.2668
     24 C          61.2891   88.8768    9.4327 C.2     1  UNL1        0.2808
     25 N          60.1679   89.7866    9.0263 N.am    1  UNL1       -0.2944
     26 H          59.9894   90.6076    9.5396 H       1  UNL1        0.1501
     27 C          62.1385   89.2179   10.6210 C.ar    1  UNL1        0.1984
     28 C          62.8420   90.5215   10.8570 C.ar    1  UNL1        0.0453
     29 C          63.5718   90.4245   12.1639 C.ar    1  UNL1        0.0409
     30 C          64.4336   91.4017   12.9071 C.ar    1  UNL1        0.0238
     31 C          65.0430   91.0152   14.2221 C.ar    1  UNL1        0.0991
     32 N          64.7906   89.6516   14.7938 N.ar    1  UNL1       -0.2391
     33 C          63.9288   88.6745   14.0506 C.ar    1  UNL1        0.1362
     34 C          63.3194   89.0609   12.7356 C.ar    1  UNL1        0.1646
     35 O          62.4336   88.3152   11.7821 O.2     1  UNL1       -0.4473
@<TRIPOS>BOND
     1    23    24    2
     2    24    25   am
     3    25    22    1
     4    22     1    1
     5     1     2   ar
     6     2     3   ar
     7     3     4   ar
     8     4     7    1
     9     7     8    2
    10     7     9    2
    11     7    10    1
    12    10    11    1
    13    11    12    1
    14    12    13    1
    15    13    16    1
    16    16    17    1
    17    17    18    1
    18    18    19    1
    19    19    20    1
    20    20    21    1
    21    13    14    1
    22    14    15    1
    23     4     5   ar
    24     5     6   ar
    25    24    27    1
    26    27    28   ar
    27    28    29   ar
    28    29    30   ar
    29    30    31   ar
    30    31    32   ar
    31    32    33   ar
    32    33    34   ar
    33    34    35   ar
    34     6     1   ar
    35    35    27   ar
    36    15    10    1
    37    34    29   ar
    38    21    16    1
    39    25    26    1
