@<TRIPOS>MOLECULE
*****
 28 31 0 0 0
SMALL
GASTEIGER

@<TRIPOS>ATOM
      1 C          62.2725   86.9286   17.9400 C.3     1  UNL1        0.0233
      2 C          63.0479   87.5340   16.8077 C.3     1  UNL1        0.0956
      3 C          63.1766   89.0245   16.6991 C.3     1  UNL1        0.1135
      4 N          63.9520   89.6299   15.5668 N.am    1  UNL1       -0.2726
      5 C          64.0805   91.1205   15.4583 C.2     1  UNL1        0.2491
      6 O          63.4338   92.0056   16.4821 O.2     1  UNL1       -0.2699
      7 C          64.5988   88.7449   14.5430 C.3     1  UNL1        0.1152
      8 C          64.4702   87.2543   14.6515 C.3     1  UNL1        0.1153
      9 N          63.6947   86.6489   15.7839 N.am    1  UNL1       -0.2716
     10 C          63.5661   85.1584   15.8924 C.2     1  UNL1        0.2883
     11 O          62.7907   84.5530   17.0248 O.2     1  UNL1       -0.2664
     12 C          64.8560   91.7259   14.3260 C.ar    1  UNL1        0.0536
     13 C          66.1510   92.4324   14.5970 C.ar    1  UNL1        0.0045
     14 C          66.9264   93.0378   13.4647 C.ar    1  UNL1        0.0001
     15 C          66.4068   92.9367   12.0612 C.ar    1  UNL1        0.0000
     16 C          65.1117   92.2301   11.7902 C.ar    1  UNL1        0.0001
     17 C          64.3363   91.6247   12.9225 C.ar    1  UNL1        0.0045
     18 C          64.2130   84.2732   14.8686 C.2     1  UNL1        0.2502
     19 O          65.6516   84.4814   14.4988 O.2     1  UNL1       -0.2817
     20 C          63.4210   83.1800   14.2146 C.2     1  UNL1        0.0638
     21 C          62.3354   82.3707   14.8599 C.2     1  UNL1        0.1018
     22 N          61.8191   81.3946   13.8446 N.2     1  UNL1       -0.2477
     23 C          62.5857   81.6007   12.5718 C.2     1  UNL1        0.0635
     24 C          62.5101   80.9261   11.2342 C.3     1  UNL1        0.0717
     25 C          63.4246   81.3550   10.1253 C.2     1  UNL1       -0.0198
     26 C          64.4146   82.4585   10.3540 C.2     1  UNL1       -0.0041
     27 C          64.4902   83.1330   11.6916 C.2     1  UNL1        0.0010
     28 C          63.5757   82.7041   12.8005 C.2     1  UNL1        0.0186
@<TRIPOS>BOND
     1     2     1    1
     2     2     3    1
     3     3     4    1
     4     4     5   am
     5     5     6    2
     6     5    12    1
     7    12    13   ar
     8    13    14   ar
     9    14    15   ar
    10    15    16   ar
    11    16    17   ar
    12     4     7    1
    13     7     8    1
    14     8     9    1
    15     9    10   am
    16    10    11    2
    17    10    18    1
    18    18    19    2
    19    18    20    1
    20    20    21    2
    21    21    22    1
    22    22    23    2
    23    23    24    1
    24    24    25    1
    25    25    26    2
    26    26    27    1
    27    27    28    2
    28     9     2    1
    29    28    20    1
    30    17    12   ar
    31    28    23    1
@<TRIPOS>MOLECULE
*****
 28 31 0 0 0
SMALL
GASTEIGER

@<TRIPOS>ATOM
      1 C          62.9348   89.9426   14.7129 C.3     1  UNL1        0.0233
      2 C          63.4222   90.5762   13.4437 C.3     1  UNL1        0.0956
      3 C          64.7860   91.1988   13.3918 C.3     1  UNL1        0.1135
      4 N          65.2734   91.8324   12.1226 N.am    1  UNL1       -0.2726
      5 C          66.6372   92.4549   12.0708 C.2     1  UNL1        0.2491
      6 O          67.5135   92.4439   13.2882 O.2     1  UNL1       -0.2699
      7 C          64.3972   91.8434   10.9052 C.3     1  UNL1        0.1152
      8 C          63.0335   91.2209   10.9570 C.3     1  UNL1        0.1153
      9 N          62.5460   90.5873   12.2263 N.am    1  UNL1       -0.2716
     10 C          61.1823   89.9648   12.2781 C.2     1  UNL1        0.2883
     11 O          60.6948   89.3312   13.5473 O.2     1  UNL1       -0.2664
     12 C          67.1246   93.0885   10.8016 C.ar    1  UNL1        0.0536
     13 C          66.7583   94.5077   10.4830 C.ar    1  UNL1        0.0045
     14 C          67.2458   95.1413    9.2137 C.ar    1  UNL1        0.0001
     15 C          68.0996   94.3557    8.2631 C.ar    1  UNL1        0.0000
     16 C          68.4659   92.9364    8.5817 C.ar    1  UNL1        0.0001
     17 C          67.9785   92.3029    9.8510 C.ar    1  UNL1        0.0045
     18 C          60.3060   89.9758   11.0607 C.2     1  UNL1        0.2502
     19 O          59.2430   91.0234   10.9113 O.2     1  UNL1       -0.2817
     20 C          60.4928   88.9392    9.9927 C.2     1  UNL1        0.0638
     21 C          59.9501   89.0047    8.5958 C.2     1  UNL1        0.1018
     22 N          60.3770   87.7611    7.8740 N.2     1  UNL1       -0.2477
     23 C          61.1836   86.9270    8.8246 C.2     1  UNL1        0.0635
     24 C          61.8621   85.5986    8.6671 C.3     1  UNL1        0.0717
     25 C          62.6122   84.9983    9.8190 C.2     1  UNL1       -0.0198
     26 C          62.6837   85.7264   11.1285 C.2     1  UNL1       -0.0041
     27 C          62.0052   87.0548   11.2860 C.2     1  UNL1        0.0010
     28 C          61.2551   87.6551   10.1341 C.2     1  UNL1        0.0186
@<TRIPOS>BOND
     1     2     1    1
     2     2     3    1
     3     3     4    1
     4     4     5   am
     5     5     6    2
     6     5    12    1
     7    12    13   ar
     8    13    14   ar
     9    14    15   ar
    10    15    16   ar
    11    16    17   ar
    12     4     7    1
    13     7     8    1
    14     8     9    1
    15     9    10   am
    16    10    11    2
    17    10    18    1
    18    18    19    2
    19    18    20    1
    20    20    21    2
    21    21    22    1
    22    22    23    2
    23    23    24    1
    24    24    25    1
    25    25    26    2
    26    26    27    1
    27    27    28    2
    28     9     2    1
    29    28    20    1
    30    17    12   ar
    31    28    23    1
@<TRIPOS>MOLECULE
*****
 28 31 0 0 0
SMALL
GASTEIGER

@<TRIPOS>ATOM
      1 C          62.1297   86.7759   17.6848 C.3     1  UNL1        0.0233
      2 C          62.9786   87.4798   16.6680 C.3     1  UNL1        0.0956
      3 C          63.1195   88.9725   16.7125 C.3     1  UNL1        0.1135
      4 N          63.9684   89.6764   15.6957 N.am    1  UNL1       -0.2726
      5 C          64.1092   91.1691   15.7404 C.2     1  UNL1        0.2491
      6 O          63.4012   91.9579   16.8018 O.2     1  UNL1       -0.2699
      7 C          64.6764   88.8877   14.6343 C.3     1  UNL1        0.1152
      8 C          64.5355   87.3950   14.5898 C.3     1  UNL1        0.1153
      9 N          63.6866   86.6911   15.6066 N.am    1  UNL1       -0.2716
     10 C          63.5457   85.1984   15.5620 C.2     1  UNL1        0.2883
     11 O          62.6968   84.4944   16.5788 O.2     1  UNL1       -0.2664
     12 C          64.9581   91.8730   14.7236 C.ar    1  UNL1        0.0536
     13 C          64.6406   91.7448   13.2633 C.ar    1  UNL1        0.0045
     14 C          65.4895   92.4487   12.2465 C.ar    1  UNL1        0.0001
     15 C          66.6560   93.2809   12.6900 C.ar    1  UNL1        0.0000
     16 C          66.9735   93.4092   14.1504 C.ar    1  UNL1        0.0001
     17 C          66.1246   92.7053   15.1672 C.ar    1  UNL1        0.0045
     18 C          64.2537   84.4095   14.5005 C.2     1  UNL1        0.2502
     19 O          65.6665   83.9561   14.7201 O.2     1  UNL1       -0.2817
     20 C          63.5489   84.0743   13.2196 C.2     1  UNL1        0.0638
     21 C          63.2733   82.6944   12.6999 C.2     1  UNL1        0.1018
     22 N          62.5500   82.8274   11.3926 N.2     1  UNL1       -0.2477
     23 C          62.3785   84.2894   11.1043 C.2     1  UNL1        0.0635
     24 C          61.7400   85.0186    9.9595 C.3     1  UNL1        0.0717
     25 C          61.7188   86.5183    9.9439 C.2     1  UNL1       -0.0198
     26 C          62.3362   87.2889   11.0730 C.2     1  UNL1       -0.0041
     27 C          62.9747   86.5598   12.2178 C.2     1  UNL1        0.0010
     28 C          62.9959   85.0601   12.2335 C.2     1  UNL1        0.0186
@<TRIPOS>BOND
     1     2     1    1
     2     2     3    1
     3     3     4    1
     4     4     5   am
     5     5     6    2
     6     5    12    1
     7    12    13   ar
     8    13    14   ar
     9    14    15   ar
    10    15    16   ar
    11    16    17   ar
    12     4     7    1
    13     7     8    1
    14     8     9    1
    15     9    10   am
    16    10    11    2
    17    10    18    1
    18    18    19    2
    19    18    20    1
    20    20    21    2
    21    21    22    1
    22    22    23    2
    23    23    24    1
    24    24    25    1
    25    25    26    2
    26    26    27    1
    27    27    28    2
    28     9     2    1
    29    28    20    1
    30    17    12   ar
    31    28    23    1
@<TRIPOS>MOLECULE
*****
 28 31 0 0 0
SMALL
GASTEIGER

@<TRIPOS>ATOM
      1 C          61.5210   88.7042   10.1337 C.3     1  UNL1        0.0233
      2 C          62.5167   88.8943   11.2393 C.3     1  UNL1        0.0956
      3 C          63.1304   90.2430   11.4723 C.3     1  UNL1        0.1135
      4 N          64.1261   90.4331   12.5779 N.am    1  UNL1       -0.2726
      5 C          64.7398   91.7819   12.8109 C.2     1  UNL1        0.2491
      6 O          64.3577   92.9406   11.9383 O.2     1  UNL1       -0.2699
      7 C          64.5083   89.2744   13.4505 C.3     1  UNL1        0.1152
      8 C          63.8946   87.9257   13.2174 C.3     1  UNL1        0.1153
      9 N          62.8989   87.7356   12.1119 N.am    1  UNL1       -0.2716
     10 C          62.2852   86.3869   11.8788 C.2     1  UNL1        0.2883
     11 O          61.2895   86.1968   10.7732 O.2     1  UNL1       -0.2664
     12 C          65.7355   91.9719   13.9164 C.ar    1  UNL1        0.0536
     13 C          65.2622   92.1850   15.3237 C.ar    1  UNL1        0.0045
     14 C          66.2580   92.3750   16.4293 C.ar    1  UNL1        0.0001
     15 C          67.7271   92.3520   16.1276 C.ar    1  UNL1        0.0000
     16 C          68.2005   92.1390   14.7203 C.ar    1  UNL1        0.0001
     17 C          67.2047   91.9490   13.6147 C.ar    1  UNL1        0.0045
     18 C          62.6674   85.2281   12.7514 C.2     1  UNL1        0.2502
     19 O          62.7601   85.4072   14.2377 O.2     1  UNL1       -0.2817
     20 C          62.9567   83.8904   12.1376 C.2     1  UNL1        0.0638
     21 C          63.6776   83.6512   10.8441 C.2     1  UNL1        0.1018
     22 N          63.7424   82.1700   10.6166 N.2     1  UNL1       -0.2477
     23 C          63.0616   81.4937   11.7695 C.2     1  UNL1        0.0635
     24 C          62.8211   80.0471   12.0848 C.3     1  UNL1        0.0717
     25 C          62.0950   79.6638   13.3401 C.2     1  UNL1       -0.0198
     26 C          61.6094   80.7271   14.2801 C.2     1  UNL1       -0.0041
     27 C          61.8499   82.1737   13.9649 C.2     1  UNL1        0.0010
     28 C          62.5760   82.5570   12.7096 C.2     1  UNL1        0.0186
@<TRIPOS>BOND
     1     2     1    1
     2     2     3    1
     3     3     4    1
     4     4     5   am
     5     5     6    2
     6     5    12    1
     7    12    13   ar
     8    13    14   ar
     9    14    15   ar
    10    15    16   ar
    11    16    17   ar
    12     4     7    1
    13     7     8    1
    14     8     9    1
    15     9    10   am
    16    10    11    2
    17    10    18    1
    18    18    19    2
    19    18    20    1
    20    20    21    2
    21    21    22    1
    22    22    23    2
    23    23    24    1
    24    24    25    1
    25    25    26    2
    26    26    27    1
    27    27    28    2
    28     9     2    1
    29    28    20    1
    30    17    12   ar
    31    28    23    1
@<TRIPOS>MOLECULE
*****
 28 31 0 0 0
SMALL
GASTEIGER

@<TRIPOS>ATOM
      1 C          64.3448   90.0127   14.6663 C.3     1  UNL1        0.0233
      2 C          64.3962   90.7758   13.3759 C.3     1  UNL1        0.0956
      3 C          65.2793   91.9821   13.2526 C.3     1  UNL1        0.1135
      4 N          65.3306   92.7452   11.9622 N.am    1  UNL1       -0.2726
      5 C          66.2138   93.9514   11.8389 C.2     1  UNL1        0.2491
      6 O          67.0455   94.3945   13.0059 O.2     1  UNL1       -0.2699
      7 C          64.4990   92.3021   10.7952 C.3     1  UNL1        0.1152
      8 C          63.6159   91.0959   10.9185 C.3     1  UNL1        0.1153
      9 N          63.5645   90.3328   12.2089 N.am    1  UNL1       -0.2716
     10 C          62.6814   89.1266   12.3323 C.2     1  UNL1        0.2883
     11 O          62.6301   88.3635   13.6226 O.2     1  UNL1       -0.2664
     12 C          66.2651   94.7145   10.5486 C.ar    1  UNL1        0.0536
     13 C          67.1865   94.2711    9.4512 C.ar    1  UNL1        0.0045
     14 C          67.2379   95.0342    8.1608 C.ar    1  UNL1        0.0001
     15 C          66.3678   96.2408    7.9679 C.ar    1  UNL1        0.0000
     16 C          65.4465   96.6842    9.0653 C.ar    1  UNL1        0.0001
     17 C          65.3951   95.9211   10.3556 C.ar    1  UNL1        0.0045
     18 C          61.8497   88.6834   11.1652 C.2     1  UNL1        0.2502
     19 O          60.6820   89.5123   10.7188 O.2     1  UNL1       -0.2817
     20 C          62.1857   87.4115   10.4447 C.2     1  UNL1        0.0638
     21 C          62.1637   87.2076    8.9587 C.2     1  UNL1        0.1018
     22 N          62.5671   85.7902    8.6794 N.2     1  UNL1       -0.2477
     23 C          62.8386   85.1180    9.9926 C.2     1  UNL1        0.0635
     24 C          63.2699   83.7230   10.3359 C.3     1  UNL1        0.0717
     25 C          63.4655   83.3300   11.7702 C.2     1  UNL1       -0.0198
     26 C          63.2298   84.3321   12.8612 C.2     1  UNL1       -0.0041
     27 C          62.7984   85.7271   12.5179 C.2     1  UNL1        0.0010
     28 C          62.6028   86.1200   11.0836 C.2     1  UNL1        0.0186
@<TRIPOS>BOND
     1     2     1    1
     2     2     3    1
     3     3     4    1
     4     4     5   am
     5     5     6    2
     6     5    12    1
     7    12    13   ar
     8    13    14   ar
     9    14    15   ar
    10    15    16   ar
    11    16    17   ar
    12     4     7    1
    13     7     8    1
    14     8     9    1
    15     9    10   am
    16    10    11    2
    17    10    18    1
    18    18    19    2
    19    18    20    1
    20    20    21    2
    21    21    22    1
    22    22    23    2
    23    23    24    1
    24    24    25    1
    25    25    26    2
    26    26    27    1
    27    27    28    2
    28     9     2    1
    29    28    20    1
    30    17    12   ar
    31    28    23    1
@<TRIPOS>MOLECULE
*****
 28 31 0 0 0
SMALL
GASTEIGER

@<TRIPOS>ATOM
      1 C          64.5884   90.2139   15.1175 C.3     1  UNL1        0.0233
      2 C          64.1704   88.9785   14.3765 C.3     1  UNL1        0.0956
      3 C          64.2981   87.6336   15.0285 C.3     1  UNL1        0.1135
      4 N          63.8800   86.3983   14.2875 N.am    1  UNL1       -0.2726
      5 C          64.0078   85.0534   14.9395 C.2     1  UNL1        0.2491
      6 O          64.5535   84.9439   16.3324 O.2     1  UNL1       -0.2699
      7 C          63.3343   86.5076   12.8946 C.3     1  UNL1        0.1152
      8 C          63.2066   87.8525   12.2427 C.3     1  UNL1        0.1153
      9 N          63.6246   89.0879   12.9837 N.am    1  UNL1       -0.2716
     10 C          63.4969   90.4328   12.3318 C.2     1  UNL1        0.2883
     11 O          63.9149   91.6682   13.0727 O.2     1  UNL1       -0.2664
     12 C          63.5898   83.8180   14.1985 C.ar    1  UNL1        0.0536
     13 C          64.3731   83.3582   13.0048 C.ar    1  UNL1        0.0045
     14 C          63.9550   82.1228   12.2639 C.ar    1  UNL1        0.0001
     15 C          62.7537   81.3471   12.7166 C.ar    1  UNL1        0.0000
     16 C          61.9704   81.8069   13.9104 C.ar    1  UNL1        0.0001
     17 C          62.3884   83.0423   14.6513 C.ar    1  UNL1        0.0045
     18 C          62.9511   90.5423   10.9388 C.2     1  UNL1        0.2502
     19 O          63.7085   91.3077    9.8946 O.2     1  UNL1       -0.2817
     20 C          61.6479   89.8863   10.5902 C.2     1  UNL1        0.0638
     21 C          60.2815   90.4083   10.9223 C.2     1  UNL1        0.1018
     22 N          59.2715   89.4378   10.3856 N.2     1  UNL1       -0.2477
     23 C          60.0138   88.3160    9.7218 C.2     1  UNL1        0.0635
     24 C          59.5420   87.0779    9.0185 C.3     1  UNL1        0.0717
     25 C          60.5390   86.1171    8.4417 C.2     1  UNL1       -0.0198
     26 C          62.0077   86.3943    8.5682 C.2     1  UNL1       -0.0041
     27 C          62.4795   87.6324    9.2714 C.2     1  UNL1        0.0010
     28 C          61.4825   88.5932    9.8482 C.2     1  UNL1        0.0186
@<TRIPOS>BOND
     1     2     1    1
     2     2     3    1
     3     3     4    1
     4     4     5   am
     5     5     6    2
     6     5    12    1
     7    12    13   ar
     8    13    14   ar
     9    14    15   ar
    10    15    16   ar
    11    16    17   ar
    12     4     7    1
    13     7     8    1
    14     8     9    1
    15     9    10   am
    16    10    11    2
    17    10    18    1
    18    18    19    2
    19    18    20    1
    20    20    21    2
    21    21    22    1
    22    22    23    2
    23    23    24    1
    24    24    25    1
    25    25    26    2
    26    26    27    1
    27    27    28    2
    28     9     2    1
    29    28    20    1
    30    17    12   ar
    31    28    23    1
@<TRIPOS>MOLECULE
*****
 28 31 0 0 0
SMALL
GASTEIGER

@<TRIPOS>ATOM
      1 C          63.1666   87.5005   17.6047 C.3     1  UNL1        0.0233
      2 C          63.2983   86.9518   16.2149 C.3     1  UNL1        0.0956
      3 C          63.3085   85.4685   15.9919 C.3     1  UNL1        0.1135
      4 N          63.4402   84.9199   14.6021 N.am    1  UNL1       -0.2726
      5 C          63.4503   83.4365   14.3792 C.2     1  UNL1        0.2491
      6 O          63.3286   82.5019   15.5461 O.2     1  UNL1       -0.2699
      7 C          63.5618   85.8545   13.4352 C.3     1  UNL1        0.1152
      8 C          63.5517   87.3378   13.6581 C.3     1  UNL1        0.1153
      9 N          63.4200   87.8864   15.0480 N.am    1  UNL1       -0.2716
     10 C          63.4099   89.3697   15.2709 C.2     1  UNL1        0.2883
     11 O          63.2781   89.9184   16.6607 O.2     1  UNL1       -0.2664
     12 C          63.5820   82.8879   12.9894 C.ar    1  UNL1        0.0536
     13 C          64.5345   83.5222   12.0197 C.ar    1  UNL1        0.0045
     14 C          64.6662   82.9736   10.6299 C.ar    1  UNL1        0.0001
     15 C          63.8454   81.7905   10.2097 C.ar    1  UNL1        0.0000
     16 C          62.8928   81.1562   11.1793 C.ar    1  UNL1        0.0001
     17 C          62.7611   81.7048   12.5692 C.ar    1  UNL1        0.0045
     18 C          63.5315   90.3044   14.1040 C.2     1  UNL1        0.2502
     19 O          62.5533   90.2195   12.9700 O.2     1  UNL1       -0.2817
     20 C          64.6313   91.3240   14.0711 C.2     1  UNL1        0.0638
     21 C          65.4378   91.7890   15.2472 C.2     1  UNL1        0.1018
     22 N          66.4226   92.8099   14.7593 N.2     1  UNL1       -0.2477
     23 C          66.2247   92.9757   13.2817 C.2     1  UNL1        0.0635
     24 C          66.9095   93.8443   12.2685 C.3     1  UNL1        0.0717
     25 C          66.4872   93.7946   10.8301 C.2     1  UNL1       -0.0198
     26 C          65.3801   92.8762   10.4048 C.2     1  UNL1       -0.0041
     27 C          64.6953   92.0076   11.4179 C.2     1  UNL1        0.0010
     28 C          65.1176   92.0574   12.8563 C.2     1  UNL1        0.0186
@<TRIPOS>BOND
     1     2     1    1
     2     2     3    1
     3     3     4    1
     4     4     5   am
     5     5     6    2
     6     5    12    1
     7    12    13   ar
     8    13    14   ar
     9    14    15   ar
    10    15    16   ar
    11    16    17   ar
    12     4     7    1
    13     7     8    1
    14     8     9    1
    15     9    10   am
    16    10    11    2
    17    10    18    1
    18    18    19    2
    19    18    20    1
    20    20    21    2
    21    21    22    1
    22    22    23    2
    23    23    24    1
    24    24    25    1
    25    25    26    2
    26    26    27    1
    27    27    28    2
    28     9     2    1
    29    28    20    1
    30    17    12   ar
    31    28    23    1
@<TRIPOS>MOLECULE
*****
 28 31 0 0 0
SMALL
GASTEIGER

@<TRIPOS>ATOM
      1 C          61.8320   88.2626   10.9099 C.3     1  UNL1        0.0233
      2 C          62.8425   88.6166   11.9604 C.3     1  UNL1        0.0956
      3 C          63.4478   89.9888   11.9867 C.3     1  UNL1        0.1135
      4 N          64.4583   90.3427   13.0373 N.am    1  UNL1       -0.2726
      5 C          65.0636   91.7150   13.0635 C.2     1  UNL1        0.2491
      6 O          64.6585   92.7332   12.0393 O.2     1  UNL1       -0.2699
      7 C          64.8635   89.3246   14.0615 C.3     1  UNL1        0.1152
      8 C          64.2581   87.9524   14.0352 C.3     1  UNL1        0.1153
      9 N          63.2477   87.5984   12.9847 N.am    1  UNL1       -0.2716
     10 C          62.6423   86.2262   12.9583 C.2     1  UNL1        0.2883
     11 O          61.6319   85.8723   11.9078 O.2     1  UNL1       -0.2664
     12 C          66.0741   92.0689   14.1141 C.ar    1  UNL1        0.0536
     13 C          65.6247   92.3939   15.5078 C.ar    1  UNL1        0.0045
     14 C          66.6351   92.7478   16.5583 C.ar    1  UNL1        0.0001
     15 C          68.0951   92.7768   16.2152 C.ar    1  UNL1        0.0000
     16 C          68.5445   92.4518   14.8215 C.ar    1  UNL1        0.0001
     17 C          67.5340   92.0979   13.7710 C.ar    1  UNL1        0.0045
     18 C          63.0475   85.2080   13.9826 C.2     1  UNL1        0.2502
     19 O          63.7496   85.6423   15.2349 O.2     1  UNL1       -0.2817
     20 C          62.7505   83.7555   13.7545 C.2     1  UNL1        0.0638
     21 C          62.0630   82.8342   14.7181 C.2     1  UNL1        0.1018
     22 N          61.9765   81.4786   14.0818 N.2     1  UNL1       -0.2477
     23 C          62.6104   81.5621   12.7249 C.2     1  UNL1        0.0635
     24 C          62.8139   80.5385   11.6475 C.3     1  UNL1        0.0717
     25 C          63.4958   80.9222   10.3677 C.2     1  UNL1       -0.0198
     26 C          63.9741   82.3294   10.1654 C.2     1  UNL1       -0.0041
     27 C          63.7707   83.3530   11.2429 C.2     1  UNL1        0.0010
     28 C          63.0888   82.9693   12.5226 C.2     1  UNL1        0.0186
@<TRIPOS>BOND
     1     2     1    1
     2     2     3    1
     3     3     4    1
     4     4     5   am
     5     5     6    2
     6     5    12    1
     7    12    13   ar
     8    13    14   ar
     9    14    15   ar
    10    15    16   ar
    11    16    17   ar
    12     4     7    1
    13     7     8    1
    14     8     9    1
    15     9    10   am
    16    10    11    2
    17    10    18    1
    18    18    19    2
    19    18    20    1
    20    20    21    2
    21    21    22    1
    22    22    23    2
    23    23    24    1
    24    24    25    1
    25    25    26    2
    26    26    27    1
    27    27    28    2
    28     9     2    1
    29    28    20    1
    30    17    12   ar
    31    28    23    1
@<TRIPOS>MOLECULE
*****
 28 31 0 0 0
SMALL
GASTEIGER

@<TRIPOS>ATOM
      1 C          61.8438   86.3484   11.5061 C.3     1  UNL1        0.0233
      2 C          61.5366   87.5071   10.6045 C.3     1  UNL1        0.0956
      3 C          60.5982   87.3291    9.4478 C.3     1  UNL1        0.1135
      4 N          60.2910   88.4879    8.5462 N.am    1  UNL1       -0.2726
      5 C          59.3526   88.3098    7.3895 C.2     1  UNL1        0.2491
      6 O          58.7215   86.9732    7.1345 O.2     1  UNL1       -0.2699
      7 C          60.9220   89.8245    8.8011 C.3     1  UNL1        0.1152
      8 C          61.8603   90.0025    9.9578 C.3     1  UNL1        0.1153
      9 N          62.1676   88.8438   10.8594 N.am    1  UNL1       -0.2716
     10 C          63.1059   89.0217   12.0161 C.2     1  UNL1        0.2883
     11 O          63.4132   87.8630   12.9177 O.2     1  UNL1       -0.2664
     12 C          59.0453   89.4686    6.4879 C.ar    1  UNL1        0.0536
     13 C          57.6232   89.8925    6.2695 C.ar    1  UNL1        0.0045
     14 C          57.3159   91.0512    5.3679 C.ar    1  UNL1        0.0001
     15 C          58.4308   91.7861    4.6846 C.ar    1  UNL1        0.0000
     16 C          59.8530   91.3622    4.9030 C.ar    1  UNL1        0.0001
     17 C          60.1602   90.2034    5.8046 C.ar    1  UNL1        0.0045
     18 C          63.7370   90.3584   12.2711 C.2     1  UNL1        0.2502
     19 O          64.0800   91.2576   11.1206 O.2     1  UNL1       -0.2817
     20 C          64.0251   90.7959   13.6767 C.2     1  UNL1        0.0638
     21 C          63.1479   90.5607   14.8706 C.2     1  UNL1        0.1018
     22 N          63.8217   91.1648   16.0669 N.2     1  UNL1       -0.2477
     23 C          65.1152   91.7733   15.6124 C.2     1  UNL1        0.0635
     24 C          66.1948   92.5055   16.3528 C.3     1  UNL1        0.0717
     25 C          67.4001   93.0097   15.6160 C.2     1  UNL1       -0.0198
     26 C          67.5258   92.7817   14.1388 C.2     1  UNL1       -0.0041
     27 C          66.4462   92.0495   13.3984 C.2     1  UNL1        0.0010
     28 C          65.2409   91.5453   14.1352 C.2     1  UNL1        0.0186
@<TRIPOS>BOND
     1     2     1    1
     2     2     3    1
     3     3     4    1
     4     4     5   am
     5     5     6    2
     6     5    12    1
     7    12    13   ar
     8    13    14   ar
     9    14    15   ar
    10    15    16   ar
    11    16    17   ar
    12     4     7    1
    13     7     8    1
    14     8     9    1
    15     9    10   am
    16    10    11    2
    17    10    18    1
    18    18    19    2
    19    18    20    1
    20    20    21    2
    21    21    22    1
    22    22    23    2
    23    23    24    1
    24    24    25    1
    25    25    26    2
    26    26    27    1
    27    27    28    2
    28     9     2    1
    29    28    20    1
    30    17    12   ar
    31    28    23    1
