@<TRIPOS>MOLECULE
*****
 36 40 0 0 0
SMALL
GASTEIGER

@<TRIPOS>ATOM
      1 C          62.7718   86.8768   12.2238 C.3     1  UNL1        0.1559
      2 C          62.0991   87.8717   11.3252 C.3     1  UNL1        0.1327
      3 N          61.4258   87.1155   10.2184 N.pl3   1  UNL1       -0.2740
      4 C          61.6825   85.6533   10.4330 C.3     1  UNL1        0.1079
      5 C          62.5144   85.5057   11.6724 C.3     1  UNL1        0.1498
      6 C          63.0707   84.3001   12.3701 C.2     1  UNL1        0.2919
      7 O          62.8133   82.9291   11.8187 O.2     1  UNL1       -0.2563
      8 N          63.8845   84.4654   13.6193 N.am    1  UNL1       -0.1449
      9 C          64.4408   83.2597   14.3170 C.3     1  UNL1        0.2159
     10 C          64.1419   85.8364   14.1707 C.2     1  UNL1        0.3728
     11 N          64.9558   86.0017   15.4199 N.2     1  UNL1       -0.1329
     12 N          63.5856   87.0421   13.4730 N.pl3   1  UNL1       -0.2247
     13 H          65.3209   85.2104   15.8779 H       1  UNL1        0.3058
     14 H          63.7546   87.9420   13.8349 H       1  UNL1        0.2454
     15 C          60.6348   87.7162    9.0943 C.ar    1  UNL1        0.2204
     16 N          59.8168   86.8344    8.1980 N.ar    1  UNL1       -0.2097
     17 C          59.0258   87.4352    7.0739 C.ar    1  UNL1        0.1330
     18 C          59.0527   88.9175    6.8462 C.ar    1  UNL1        0.1784
     19 F          58.2617   89.5181    5.7222 F       1  UNL1       -0.2009
     20 C          59.8707   89.7992    7.7426 C.ar    1  UNL1        0.1330
     21 N          60.6617   89.1985    8.8666 N.ar    1  UNL1       -0.2097
     22 C          63.9547   90.4317   13.2379 C.ar    1  UNL1        0.0069
     23 C          62.4692   90.5640   13.3979 C.ar    1  UNL1        0.0352
     24 S          61.8452   89.2483   13.0375 S.2     1  UNL1       -0.0878
     25 C          62.9452   88.3030   12.6547 C.ar    1  UNL1        0.0397
     26 C          64.2489   89.0344   12.7786 C.ar    1  UNL1        0.0057
     27 C          66.7483   92.6024   15.0361 C.ar    1  UNL1        0.1394
     28 C          66.9950   93.6603   14.0017 C.ar    1  UNL1        0.0472
     29 C          66.2282   93.6419   12.7126 C.ar    1  UNL1        0.0715
     30 C          65.2148   92.5657   12.4580 C.ar    1  UNL1        0.0105
     31 C          64.9681   91.5079   13.4924 C.ar    1  UNL1        0.0042
     32 C          65.7349   91.5263   14.7815 C.ar    1  UNL1        0.0370
     33 C          68.9999   92.4079   16.3177 C.3     1  UNL1        0.2525
     34 O          67.5151   92.6207   16.3252 O.3     1  UNL1       -0.4714
     35 C          66.4749   94.6997   11.6781 C.1     1  UNL1        0.1005
     36 N          66.7214   95.7575   10.6435 N.1     1  UNL1       -0.1908
@<TRIPOS>BOND
     1    33    34    1
     2    34    27    1
     3    27    28   ar
     4    28    29   ar
     5    29    35    1
     6    35    36    3
     7    29    30   ar
     8    30    31   ar
     9    31    22    1
    10    22    23   ar
    11    23    24   ar
    12    24    25   ar
    13     1    25    1
    14     1     2    1
    15     2     3    1
    16     3    15    1
    17    15    16   ar
    18    16    17   ar
    19    17    18   ar
    20    18    19    1
    21    18    20   ar
    22    20    21   ar
    23     3     4    1
    24     5     4    1
    25     5     6    1
    26     6     7    2
    27     6     8   am
    28     8     9    1
    29     8    10    1
    30    10    11    2
    31    10    12    1
    32    25    26   ar
    33    31    32   ar
    34    32    27   ar
    35    26    22   ar
    36     5     1    1
    37    12     1    1
    38    21    15   ar
    39    11    13    1
    40    12    14    1
@<TRIPOS>MOLECULE
*****
 36 40 0 0 0
SMALL
GASTEIGER

@<TRIPOS>ATOM
      1 C          62.8745   86.7311   12.5037 C.3     1  UNL1        0.1559
      2 C          62.2576   87.7803   11.6269 C.3     1  UNL1        0.1327
      3 N          61.5551   87.0863   10.4978 N.pl3   1  UNL1       -0.2740
      4 C          61.7379   85.6082   10.6767 C.3     1  UNL1        0.1079
      5 C          62.5534   85.3887   11.9164 C.3     1  UNL1        0.1498
      6 C          63.0449   84.1400   12.5864 C.2     1  UNL1        0.2919
      7 O          62.7238   82.7976   11.9991 O.2     1  UNL1       -0.2563
      8 N          63.8577   84.2336   13.8436 N.am    1  UNL1       -0.1449
      9 C          64.3492   82.9847   14.5136 C.3     1  UNL1        0.2159
     10 C          64.1788   85.5759   14.4309 C.2     1  UNL1        0.3728
     11 N          64.9916   85.6695   15.6882 N.2     1  UNL1       -0.1329
     12 N          63.6872   86.8247   13.7609 N.pl3   1  UNL1       -0.2247
     13 H          65.3142   84.8498   16.1280 H       1  UNL1        0.3058
     14 H          63.8980   87.7058   14.1464 H       1  UNL1        0.2454
     15 C          60.8021   87.7532    9.3851 C.ar    1  UNL1        0.2204
     16 N          60.8608   89.2438    9.2277 N.ar    1  UNL1       -0.2097
     17 C          60.1077   89.9107    8.1150 C.ar    1  UNL1        0.1330
     18 C          59.2959   89.0870    7.1596 C.ar    1  UNL1        0.1784
     19 F          58.5429   89.7540    6.0469 F       1  UNL1       -0.2009
     20 C          59.2372   87.5965    7.3170 C.ar    1  UNL1        0.1330
     21 N          59.9903   86.9296    8.4298 N.ar    1  UNL1       -0.2097
     22 C          64.0527   90.3623   13.2048 C.ar    1  UNL1        0.0069
     23 C          62.9185   90.2326   14.1779 C.ar    1  UNL1        0.0352
     24 S          62.3392   88.8565   14.0336 S.2     1  UNL1       -0.0878
     25 C          63.1152   88.1358   12.9714 C.ar    1  UNL1        0.0397
     26 C          64.1742   89.0665   12.4592 C.ar    1  UNL1        0.0057
     27 C          65.7261   93.5439   11.5233 C.ar    1  UNL1        0.1394
     28 C          66.6367   94.0005   12.6243 C.ar    1  UNL1        0.0472
     29 C          66.6860   93.2443   13.9188 C.ar    1  UNL1        0.0715
     30 C          65.8246   92.0317   14.1123 C.ar    1  UNL1        0.0105
     31 C          64.9140   91.5750   13.0113 C.ar    1  UNL1        0.0042
     32 C          64.8647   92.3312   11.7168 C.ar    1  UNL1        0.0370
     33 C          66.9419   94.5712    9.4699 C.3     1  UNL1        0.2525
     34 O          65.6767   94.3000   10.2287 O.3     1  UNL1       -0.4714
     35 C          67.5966   93.7009   15.0199 C.1     1  UNL1        0.1005
     36 N          68.5071   94.1574   16.1211 N.1     1  UNL1       -0.1908
@<TRIPOS>BOND
     1    33    34    1
     2    34    27    1
     3    27    28   ar
     4    28    29   ar
     5    29    35    1
     6    35    36    3
     7    29    30   ar
     8    30    31   ar
     9    31    22    1
    10    22    23   ar
    11    23    24   ar
    12    24    25   ar
    13     1    25    1
    14     1     2    1
    15     2     3    1
    16     3    15    1
    17    15    16   ar
    18    16    17   ar
    19    17    18   ar
    20    18    19    1
    21    18    20   ar
    22    20    21   ar
    23     3     4    1
    24     5     4    1
    25     5     6    1
    26     6     7    2
    27     6     8   am
    28     8     9    1
    29     8    10    1
    30    10    11    2
    31    10    12    1
    32    25    26   ar
    33    31    32   ar
    34    32    27   ar
    35    26    22   ar
    36     5     1    1
    37    12     1    1
    38    21    15   ar
    39    11    13    1
    40    12    14    1
@<TRIPOS>MOLECULE
*****
 36 40 0 0 0
SMALL
GASTEIGER

@<TRIPOS>ATOM
      1 C          62.8253   86.7262   12.2316 C.3     1  UNL1        0.1559
      2 C          62.2306   87.7218   11.2801 C.3     1  UNL1        0.1327
      3 N          61.3998   86.9704   10.2825 N.pl3   1  UNL1       -0.2740
      4 C          61.4810   85.5105   10.6174 C.3     1  UNL1        0.1079
      5 C          62.3620   85.3596   11.8220 C.3     1  UNL1        0.1498
      6 C          62.8023   84.1544   12.5988 C.2     1  UNL1        0.2919
      7 O          62.3391   82.7877   12.1892 O.2     1  UNL1       -0.2563
      8 N          63.7058   84.3157   13.7852 N.am    1  UNL1       -0.1449
      9 C          64.1461   83.1104   14.5621 C.3     1  UNL1        0.2159
     10 C          64.1690   85.6823   14.1948 C.2     1  UNL1        0.3728
     11 N          65.0726   85.8436   15.3813 N.2     1  UNL1       -0.1329
     12 N          63.7288   86.8876   13.4180 N.pl3   1  UNL1       -0.2247
     13 H          65.3615   85.0526   15.8912 H       1  UNL1        0.3058
     14 H          64.0328   87.7846   13.6868 H       1  UNL1        0.2454
     15 C          60.6240   87.5731    9.1490 C.ar    1  UNL1        0.2204
     16 N          60.6399   89.0576    8.9349 N.ar    1  UNL1       -0.2097
     17 C          59.8640   89.6603    7.8013 C.ar    1  UNL1        0.1330
     18 C          59.0722   88.7784    6.8819 C.ar    1  UNL1        0.1784
     19 F          58.2964   89.3811    5.7484 F       1  UNL1       -0.2009
     20 C          59.0563   87.2939    7.0960 C.ar    1  UNL1        0.1330
     21 N          59.8322   86.6912    8.2296 N.ar    1  UNL1       -0.2097
     22 C          64.2045   90.1079   13.5459 C.ar    1  UNL1        0.0069
     23 C          63.3736   90.5657   12.3840 C.ar    1  UNL1        0.0352
     24 S          62.7558   89.3546   11.7502 S.2     1  UNL1       -0.0878
     25 C          63.2049   88.1483   12.5204 C.ar    1  UNL1        0.0397
     26 C          64.1002   88.6139   13.6302 C.ar    1  UNL1        0.0057
     27 C          65.1516   92.4590   16.5996 C.ar    1  UNL1        0.1394
     28 C          66.5909   92.7523   16.2959 C.ar    1  UNL1        0.0472
     29 C          67.2348   92.1640   15.0755 C.ar    1  UNL1        0.0715
     30 C          66.4393   91.2826   14.1588 C.ar    1  UNL1        0.0105
     31 C          65.0000   90.9893   14.4625 C.ar    1  UNL1        0.0042
     32 C          64.3561   91.5776   15.6830 C.ar    1  UNL1        0.0370
     33 C          63.2692   93.8827   17.6856 C.3     1  UNL1        0.2525
     34 O          64.5077   93.0472   17.8200 O.3     1  UNL1       -0.4714
     35 C          68.6741   92.4572   14.7717 C.1     1  UNL1        0.1005
     36 N          70.1135   92.7504   14.4678 N.1     1  UNL1       -0.1908
@<TRIPOS>BOND
     1    33    34    1
     2    34    27    1
     3    27    28   ar
     4    28    29   ar
     5    29    35    1
     6    35    36    3
     7    29    30   ar
     8    30    31   ar
     9    31    22    1
    10    22    23   ar
    11    23    24   ar
    12    24    25   ar
    13     1    25    1
    14     1     2    1
    15     2     3    1
    16     3    15    1
    17    15    16   ar
    18    16    17   ar
    19    17    18   ar
    20    18    19    1
    21    18    20   ar
    22    20    21   ar
    23     3     4    1
    24     5     4    1
    25     5     6    1
    26     6     7    2
    27     6     8   am
    28     8     9    1
    29     8    10    1
    30    10    11    2
    31    10    12    1
    32    25    26   ar
    33    31    32   ar
    34    32    27   ar
    35    26    22   ar
    36     5     1    1
    37    12     1    1
    38    21    15   ar
    39    11    13    1
    40    12    14    1
@<TRIPOS>MOLECULE
*****
 36 40 0 0 0
SMALL
GASTEIGER

@<TRIPOS>ATOM
      1 C          63.0788   85.0608   12.8431 C.3     1  UNL1        0.1559
      2 C          62.6292   86.3524   12.2270 C.3     1  UNL1        0.1327
      3 N          61.8979   86.0305   10.9576 N.pl3   1  UNL1       -0.2740
      4 C          61.8954   84.5400   10.7892 C.3     1  UNL1        0.1079
      5 C          62.6253   83.9407   11.9546 C.3     1  UNL1        0.1498
      6 C          62.9355   82.5197   12.3214 C.2     1  UNL1        0.2919
      7 O          62.4820   81.3995   11.4328 O.2     1  UNL1       -0.2563
      8 N          63.6993   82.2189   13.5768 N.am    1  UNL1       -0.1449
      9 C          64.0095   80.7978   13.9436 C.3     1  UNL1        0.2159
     10 C          64.1528   83.3389   14.4654 C.2     1  UNL1        0.3728
     11 N          64.9166   83.0381   15.7209 N.2     1  UNL1       -0.1329
     12 N          63.8426   84.7600   14.0986 N.pl3   1  UNL1       -0.2247
     13 H          65.1202   82.1054   15.9617 H       1  UNL1        0.3058
     14 H          64.1402   85.4952   14.6818 H       1  UNL1        0.2454
     15 C          61.2778   87.0246   10.0209 C.ar    1  UNL1        0.2204
     16 N          60.4341   86.5503    8.8750 N.ar    1  UNL1       -0.2097
     17 C          59.8140   87.5445    7.9384 C.ar    1  UNL1        0.1330
     18 C          60.0376   89.0128    8.1477 C.ar    1  UNL1        0.1784
     19 F          59.4175   90.0069    7.2110 F       1  UNL1       -0.2009
     20 C          60.8813   89.4871    9.2936 C.ar    1  UNL1        0.1330
     21 N          61.5014   88.4930   10.2302 N.ar    1  UNL1       -0.2097
     22 C          64.2232   88.5122   14.2008 C.ar    1  UNL1        0.0069
     23 C          63.8957   87.7933   15.4759 C.ar    1  UNL1        0.0352
     24 S          63.4271   86.4129   15.1225 S.2     1  UNL1       -0.0878
     25 C          63.4651   86.2787   13.6290 C.ar    1  UNL1        0.0397
     26 C          63.9571   87.5761   13.0594 C.ar    1  UNL1        0.0057
     27 C          65.8180   92.0140   15.1724 C.ar    1  UNL1        0.1394
     28 C          65.7383   92.7358   13.8599 C.ar    1  UNL1        0.0472
     29 C          65.1534   92.0497   12.6610 C.ar    1  UNL1        0.0715
     30 C          64.6484   90.6419   12.7747 C.ar    1  UNL1        0.0105
     31 C          64.7282   89.9201   14.0872 C.ar    1  UNL1        0.0042
     32 C          65.3130   90.6062   15.2860 C.ar    1  UNL1        0.0370
     33 C          67.8479   93.1021   16.3746 C.3     1  UNL1        0.2525
     34 O          66.4028   92.7001   16.3713 O.3     1  UNL1       -0.4714
     35 C          65.0736   92.7714   11.3485 C.1     1  UNL1        0.1005
     36 N          64.9937   93.4932   10.0359 N.1     1  UNL1       -0.1908
@<TRIPOS>BOND
     1    33    34    1
     2    34    27    1
     3    27    28   ar
     4    28    29   ar
     5    29    35    1
     6    35    36    3
     7    29    30   ar
     8    30    31   ar
     9    31    22    1
    10    22    23   ar
    11    23    24   ar
    12    24    25   ar
    13     1    25    1
    14     1     2    1
    15     2     3    1
    16     3    15    1
    17    15    16   ar
    18    16    17   ar
    19    17    18   ar
    20    18    19    1
    21    18    20   ar
    22    20    21   ar
    23     3     4    1
    24     5     4    1
    25     5     6    1
    26     6     7    2
    27     6     8   am
    28     8     9    1
    29     8    10    1
    30    10    11    2
    31    10    12    1
    32    25    26   ar
    33    31    32   ar
    34    32    27   ar
    35    26    22   ar
    36     5     1    1
    37    12     1    1
    38    21    15   ar
    39    11    13    1
    40    12    14    1
@<TRIPOS>MOLECULE
*****
 36 40 0 0 0
SMALL
GASTEIGER

@<TRIPOS>ATOM
      1 C          61.7898   94.6444   -0.3969 C.3     1  UNL1        0.1559
      2 C          60.7763   93.9849    0.4906 C.3     1  UNL1        0.1327
      3 N          61.4981   93.4184    1.6773 N.pl3   1  UNL1       -0.2740
      4 C          62.9577   93.7279    1.5231 C.3     1  UNL1        0.1079
      5 C          63.1380   94.4857    0.2412 C.3     1  UNL1        0.1498
      6 C          64.3556   95.0516   -0.4275 C.2     1  UNL1        0.2919
      7 O          65.7038   94.8928    0.2106 O.2     1  UNL1       -0.2563
      8 N          64.2250   95.7763   -1.7343 N.am    1  UNL1       -0.1449
      9 C          65.4427   96.3422   -2.4030 C.3     1  UNL1        0.2159
     10 C          62.8769   95.9351   -2.3724 C.2     1  UNL1        0.3728
     11 N          62.7463   96.6598   -3.6792 N.2     1  UNL1       -0.1329
     12 N          61.6592   95.3692   -1.7037 N.pl3   1  UNL1       -0.2247
     13 H          63.5454   97.0313   -4.1181 H       1  UNL1        0.3058
     14 H          60.7743   95.4734   -2.1225 H       1  UNL1        0.2454
     15 C          60.8705   92.6733    2.8178 C.ar    1  UNL1        0.2204
     16 N          59.3934   92.7755    3.0582 N.ar    1  UNL1       -0.2097
     17 C          58.7659   92.0303    4.1989 C.ar    1  UNL1        0.1330
     18 C          59.6154   91.1829    5.0990 C.ar    1  UNL1        0.1784
     19 F          58.9879   90.4377    6.2396 F       1  UNL1       -0.2009
     20 C          61.0925   91.0807    4.8586 C.ar    1  UNL1        0.1330
     21 N          61.7200   91.8259    3.7180 N.ar    1  UNL1       -0.2097
     22 C          58.4245   94.4758   -2.3234 C.ar    1  UNL1        0.0069
     23 C          58.0138   95.2197   -1.0873 C.ar    1  UNL1        0.0352
     24 S          59.2245   95.3734   -0.2152 S.2     1  UNL1       -0.0878
     25 C          60.3834   94.7245   -0.9123 C.ar    1  UNL1        0.0397
     26 C          59.8889   94.1698   -2.2153 C.ar    1  UNL1        0.0057
     27 C          56.8390   92.4336   -5.3343 C.ar    1  UNL1        0.1394
     28 C          55.7351   93.3584   -5.7541 C.ar    1  UNL1        0.0472
     29 C          55.5277   94.6557   -5.0302 C.ar    1  UNL1        0.0715
     30 C          56.4242   95.0282   -3.8867 C.ar    1  UNL1        0.0105
     31 C          57.5280   94.1034   -3.4670 C.ar    1  UNL1        0.0042
     32 C          57.7354   92.8061   -4.1908 C.ar    1  UNL1        0.0370
     33 C          57.1758   91.1236   -7.5525 C.3     1  UNL1        0.2525
     34 O          57.0464   91.1362   -6.0582 O.3     1  UNL1       -0.4714
     35 C          54.4239   95.5806   -5.4499 C.1     1  UNL1        0.1005
     36 N          53.3199   96.5054   -5.8695 N.1     1  UNL1       -0.1908
@<TRIPOS>BOND
     1    33    34    1
     2    34    27    1
     3    27    28   ar
     4    28    29   ar
     5    29    35    1
     6    35    36    3
     7    29    30   ar
     8    30    31   ar
     9    31    22    1
    10    22    23   ar
    11    23    24   ar
    12    24    25   ar
    13     1    25    1
    14     1     2    1
    15     2     3    1
    16     3    15    1
    17    15    16   ar
    18    16    17   ar
    19    17    18   ar
    20    18    19    1
    21    18    20   ar
    22    20    21   ar
    23     3     4    1
    24     5     4    1
    25     5     6    1
    26     6     7    2
    27     6     8   am
    28     8     9    1
    29     8    10    1
    30    10    11    2
    31    10    12    1
    32    25    26   ar
    33    31    32   ar
    34    32    27   ar
    35    26    22   ar
    36     5     1    1
    37    12     1    1
    38    21    15   ar
    39    11    13    1
    40    12    14    1
@<TRIPOS>MOLECULE
*****
 36 40 0 0 0
SMALL
GASTEIGER

@<TRIPOS>ATOM
      1 C          64.6303   91.6509   12.7134 C.3     1  UNL1        0.1559
      2 C          63.9855   90.3606   13.1249 C.3     1  UNL1        0.1327
      3 N          64.3760   90.0799   14.5457 N.pl3   1  UNL1       -0.2740
      4 C          65.2621   91.1966   15.0123 C.3     1  UNL1        0.1079
      5 C          65.4193   92.1676   13.8798 C.3     1  UNL1        0.1498
      6 C          66.1789   93.4554   13.7600 C.2     1  UNL1        0.2919
      7 O          66.9679   93.9721   14.9264 O.2     1  UNL1       -0.2563
      8 N          66.1495   94.2266   12.4738 N.am    1  UNL1       -0.1449
      9 C          66.9092   95.5146   12.3540 C.3     1  UNL1        0.2159
     10 C          65.3606   93.7100   11.3074 C.2     1  UNL1        0.3728
     11 N          65.3312   94.4813   10.0211 N.2     1  UNL1       -0.1329
     12 N          64.6009   92.4221   11.4272 N.pl3   1  UNL1       -0.2247
     13 H          65.8298   95.3266    9.9425 H       1  UNL1        0.3058
     14 H          64.0831   92.0830   10.6616 H       1  UNL1        0.2454
     15 C          63.9544   88.8910   15.3575 C.ar    1  UNL1        0.2204
     16 N          64.2479   87.5047   14.8656 N.ar    1  UNL1       -0.2097
     17 C          63.8263   86.3159   15.6775 C.ar    1  UNL1        0.1330
     18 C          63.1111   86.5134   16.9811 C.ar    1  UNL1        0.1784
     19 F          62.6895   85.3246   17.7929 F       1  UNL1       -0.2009
     20 C          62.8176   87.8998   17.4730 C.ar    1  UNL1        0.1330
     21 N          63.2393   89.0885   16.6612 N.ar    1  UNL1       -0.2097
     22 C          62.6439   89.3578   10.2924 C.ar    1  UNL1        0.0069
     23 C          62.4086   90.7043    9.6747 C.ar    1  UNL1        0.0352
     24 S          63.1242   91.7272   10.5065 S.2     1  UNL1       -0.0878
     25 C          63.8016   91.0129   11.6382 C.ar    1  UNL1        0.0397
     26 C          63.5048   89.5485   11.5059 C.ar    1  UNL1        0.0057
     27 C          60.3210   86.7105    8.4632 C.ar    1  UNL1        0.1394
     28 C          61.0473   85.4349    8.7719 C.ar    1  UNL1        0.0472
     29 C          62.3058   85.4669    9.5874 C.ar    1  UNL1        0.0715
     30 C          62.8380   86.7746   10.0942 C.ar    1  UNL1        0.0105
     31 C          62.1117   88.0502    9.7856 C.ar    1  UNL1        0.0042
     32 C          60.8532   88.0181    8.9700 C.ar    1  UNL1        0.0370
     33 C          58.4515   87.9591    7.1610 C.3     1  UNL1        0.2525
     34 O          59.0625   86.6785    7.6476 O.3     1  UNL1       -0.4714
     35 C          63.0321   84.1914    9.8961 C.1     1  UNL1        0.1005
     36 N          63.7585   82.9157   10.2050 N.1     1  UNL1       -0.1908
@<TRIPOS>BOND
     1    33    34    1
     2    34    27    1
     3    27    28   ar
     4    28    29   ar
     5    29    35    1
     6    35    36    3
     7    29    30   ar
     8    30    31   ar
     9    31    22    1
    10    22    23   ar
    11    23    24   ar
    12    24    25   ar
    13     1    25    1
    14     1     2    1
    15     2     3    1
    16     3    15    1
    17    15    16   ar
    18    16    17   ar
    19    17    18   ar
    20    18    19    1
    21    18    20   ar
    22    20    21   ar
    23     3     4    1
    24     5     4    1
    25     5     6    1
    26     6     7    2
    27     6     8   am
    28     8     9    1
    29     8    10    1
    30    10    11    2
    31    10    12    1
    32    25    26   ar
    33    31    32   ar
    34    32    27   ar
    35    26    22   ar
    36     5     1    1
    37    12     1    1
    38    21    15   ar
    39    11    13    1
    40    12    14    1
@<TRIPOS>MOLECULE
*****
 36 40 0 0 0
SMALL
GASTEIGER

@<TRIPOS>ATOM
      1 C          61.8010   94.7683   -0.3312 C.3     1  UNL1        0.1559
      2 C          60.7768   94.1304    0.5600 C.3     1  UNL1        0.1327
      3 N          61.4979   93.4807    1.7037 N.pl3   1  UNL1       -0.2740
      4 C          62.9676   93.7171    1.5193 C.3     1  UNL1        0.1079
      5 C          63.1549   94.5129    0.2617 C.3     1  UNL1        0.1498
      6 C          64.3835   95.0379   -0.4202 C.2     1  UNL1        0.2919
      7 O          65.7375   94.7825    0.1727 O.2     1  UNL1       -0.2563
      8 N          64.2580   95.8183   -1.6951 N.am    1  UNL1       -0.1449
      9 C          65.4867   96.3434   -2.3770 C.3     1  UNL1        0.2159
     10 C          62.9041   96.0737   -2.2879 C.2     1  UNL1        0.3728
     11 N          62.7787   96.8542   -3.5628 N.2     1  UNL1       -0.1329
     12 N          61.6755   95.5487   -1.6060 N.pl3   1  UNL1       -0.2247
     13 H          63.5850   97.1988   -4.0104 H       1  UNL1        0.3058
     14 H          60.7869   95.7163   -1.9952 H       1  UNL1        0.2454
     15 C          60.8610   92.7270    2.8334 C.ar    1  UNL1        0.2204
     16 N          61.7013   91.8637    3.7270 N.ar    1  UNL1       -0.2097
     17 C          61.0644   91.1100    4.8567 C.ar    1  UNL1        0.1330
     18 C          59.5871   91.2196    5.0929 C.ar    1  UNL1        0.1784
     19 F          58.9503   90.4659    6.2226 F       1  UNL1       -0.2009
     20 C          58.7468   92.0829    4.1993 C.ar    1  UNL1        0.1330
     21 N          59.3838   92.8366    3.0695 N.ar    1  UNL1       -0.2097
     22 C          58.3847   94.8664   -2.1710 C.ar    1  UNL1        0.0069
     23 C          58.0419   95.5601   -0.8860 C.ar    1  UNL1        0.0352
     24 S          59.2800   95.6078   -0.0404 S.2     1  UNL1       -0.0878
     25 C          60.3879   94.9435   -0.8028 C.ar    1  UNL1        0.0397
     26 C          59.8346   94.4853   -2.1196 C.ar    1  UNL1        0.0057
     27 C          55.3750   95.2852   -4.7238 C.ar    1  UNL1        0.1394
     28 C          55.5593   94.0685   -5.5814 C.ar    1  UNL1        0.0472
     29 C          56.6854   93.1177   -5.3023 C.ar    1  UNL1        0.0715
     30 C          57.6272   93.3837   -4.1655 C.ar    1  UNL1        0.0105
     31 C          57.4429   94.6004   -3.3078 C.ar    1  UNL1        0.0042
     32 C          56.3168   95.5512   -3.5870 C.ar    1  UNL1        0.0370
     33 C          53.0209   96.2175   -4.1417 C.3     1  UNL1        0.2525
     34 O          54.2489   96.2360   -5.0029 O.3     1  UNL1       -0.4714
     35 C          56.8698   91.9010   -6.1599 C.1     1  UNL1        0.1005
     36 N          57.0541   90.6841   -7.0175 N.1     1  UNL1       -0.1908
@<TRIPOS>BOND
     1    33    34    1
     2    34    27    1
     3    27    28   ar
     4    28    29   ar
     5    29    35    1
     6    35    36    3
     7    29    30   ar
     8    30    31   ar
     9    31    22    1
    10    22    23   ar
    11    23    24   ar
    12    24    25   ar
    13     1    25    1
    14     1     2    1
    15     2     3    1
    16     3    15    1
    17    15    16   ar
    18    16    17   ar
    19    17    18   ar
    20    18    19    1
    21    18    20   ar
    22    20    21   ar
    23     3     4    1
    24     5     4    1
    25     5     6    1
    26     6     7    2
    27     6     8   am
    28     8     9    1
    29     8    10    1
    30    10    11    2
    31    10    12    1
    32    25    26   ar
    33    31    32   ar
    34    32    27   ar
    35    26    22   ar
    36     5     1    1
    37    12     1    1
    38    21    15   ar
    39    11    13    1
    40    12    14    1
@<TRIPOS>MOLECULE
*****
 36 40 0 0 0
SMALL
GASTEIGER

@<TRIPOS>ATOM
      1 C          59.5746   94.9471   -3.6119 C.3     1  UNL1        0.1559
      2 C          58.3420   95.2029   -2.7963 C.3     1  UNL1        0.1327
      3 N          57.1803   95.3236   -3.7375 N.pl3   1  UNL1       -0.2740
      4 C          57.6949   95.1424   -5.1348 C.3     1  UNL1        0.1079
      5 C          59.1747   94.9097   -5.0572 C.3     1  UNL1        0.1498
      6 C          60.2097   94.6685   -6.1157 C.2     1  UNL1        0.2919
      7 O          59.8098   94.6311   -7.5610 O.2     1  UNL1       -0.2563
      8 N          61.6446   94.4648   -5.7291 N.am    1  UNL1       -0.1449
      9 C          62.6796   94.2236   -6.7878 C.3     1  UNL1        0.2159
     10 C          62.0445   94.5022   -4.2840 C.2     1  UNL1        0.3728
     11 N          63.4795   94.2985   -3.8973 N.2     1  UNL1       -0.1329
     12 N          61.0095   94.7434   -3.2253 N.pl3   1  UNL1       -0.2247
     13 H          64.1589   94.1402   -4.5921 H       1  UNL1        0.3058
     14 H          61.2720   94.7679   -2.2767 H       1  UNL1        0.2454
     15 C          55.7543   95.5804   -3.3496 C.ar    1  UNL1        0.2204
     16 N          55.3384   95.4800   -1.9119 N.ar    1  UNL1       -0.2097
     17 C          53.9123   95.7368   -1.5240 C.ar    1  UNL1        0.1330
     18 C          52.9022   96.0942   -2.5738 C.ar    1  UNL1        0.1784
     19 F          51.4761   96.3510   -2.1858 F       1  UNL1       -0.2009
     20 C          53.3181   96.1947   -4.0114 C.ar    1  UNL1        0.1330
     21 N          54.7442   95.9378   -4.3993 N.ar    1  UNL1       -0.2097
     22 C          60.2525   94.3617    0.1647 C.ar    1  UNL1        0.0069
     23 C          60.1597   95.8580    0.1155 C.ar    1  UNL1        0.0352
     24 S          59.8945   96.2594   -1.3053 S.2     1  UNL1       -0.0878
     25 C          59.8233   95.0112   -2.1341 C.ar    1  UNL1        0.0397
     26 C          60.0446   93.8383   -1.2256 C.ar    1  UNL1        0.0057
     27 C          62.1621   92.2832    2.9546 C.ar    1  UNL1        0.1394
     28 C          61.0198   91.8787    3.8385 C.ar    1  UNL1        0.0472
     29 C          59.6216   92.3019    3.4978 C.ar    1  UNL1        0.0715
     30 C          59.3658   93.1295    2.2732 C.ar    1  UNL1        0.0105
     31 C          60.5082   93.5340    1.3893 C.ar    1  UNL1        0.0042
     32 C          61.9064   93.1109    1.7300 C.ar    1  UNL1        0.0370
     33 C          63.9350   90.4082    3.2563 C.3     1  UNL1        0.2525
     34 O          63.5603   91.8601    3.2952 O.3     1  UNL1       -0.4714
     35 C          58.4792   91.8974    4.3816 C.1     1  UNL1        0.1005
     36 N          57.3366   91.4929    5.2654 N.1     1  UNL1       -0.1908
@<TRIPOS>BOND
     1    33    34    1
     2    34    27    1
     3    27    28   ar
     4    28    29   ar
     5    29    35    1
     6    35    36    3
     7    29    30   ar
     8    30    31   ar
     9    31    22    1
    10    22    23   ar
    11    23    24   ar
    12    24    25   ar
    13     1    25    1
    14     1     2    1
    15     2     3    1
    16     3    15    1
    17    15    16   ar
    18    16    17   ar
    19    17    18   ar
    20    18    19    1
    21    18    20   ar
    22    20    21   ar
    23     3     4    1
    24     5     4    1
    25     5     6    1
    26     6     7    2
    27     6     8   am
    28     8     9    1
    29     8    10    1
    30    10    11    2
    31    10    12    1
    32    25    26   ar
    33    31    32   ar
    34    32    27   ar
    35    26    22   ar
    36     5     1    1
    37    12     1    1
    38    21    15   ar
    39    11    13    1
    40    12    14    1
@<TRIPOS>MOLECULE
*****
 36 40 0 0 0
SMALL
GASTEIGER

@<TRIPOS>ATOM
      1 C          64.1811   90.9039   12.5562 C.3     1  UNL1        0.1559
      2 C          63.4118   89.8042   13.2262 C.3     1  UNL1        0.1327
      3 N          64.2021   89.3432   14.4148 N.pl3   1  UNL1       -0.2740
      4 C          65.4598   90.1581   14.4795 C.3     1  UNL1        0.1079
      5 C          65.4468   91.1226   13.3308 C.3     1  UNL1        0.1498
      6 C          66.4240   92.1719   12.8901 C.2     1  UNL1        0.2919
      7 O          67.6898   92.3906   13.6647 O.2     1  UNL1       -0.2563
      8 N          66.1354   93.0024   11.6748 N.am    1  UNL1       -0.1449
      9 C          67.1127   94.0516   11.2342 C.3     1  UNL1        0.2159
     10 C          64.8697   92.7837   10.9003 C.2     1  UNL1        0.3728
     11 N          64.5811   93.6142    9.6849 N.2     1  UNL1       -0.1329
     12 N          63.8925   91.7344   11.3409 N.pl3   1  UNL1       -0.2247
     13 H          65.2225   94.3029    9.3956 H       1  UNL1        0.3058
     14 H          63.0617   91.5908   10.8325 H       1  UNL1        0.2454
     15 C          63.8046   88.2580   15.3709 C.ar    1  UNL1        0.2204
     16 N          63.0922   88.6045   16.6447 N.ar    1  UNL1       -0.2097
     17 C          62.6947   87.5191   17.6008 C.ar    1  UNL1        0.1330
     18 C          63.0095   86.0873   17.2831 C.ar    1  UNL1        0.1784
     19 F          62.6119   85.0021   18.2392 F       1  UNL1       -0.2009
     20 C          63.7218   85.7408   16.0093 C.ar    1  UNL1        0.1330
     21 N          64.1193   86.8262   15.0533 N.ar    1  UNL1       -0.2097
     22 C          61.2534   89.7701   10.2740 C.ar    1  UNL1        0.0069
     23 C          60.5057   90.3574   11.4342 C.ar    1  UNL1        0.0352
     24 S          61.5115   90.8536   12.4304 S.2     1  UNL1       -0.0878
     25 C          62.8807   90.5730   11.8858 C.ar    1  UNL1        0.0397
     26 C          62.7212   89.9034   10.5531 C.ar    1  UNL1        0.0057
     27 C          60.0709   87.0578    7.6292 C.ar    1  UNL1        0.1394
     28 C          59.4156   87.9313    6.6009 C.ar    1  UNL1        0.0472
     29 C          59.3728   89.4179    6.7970 C.ar    1  UNL1        0.0715
     30 C          59.9855   90.0307    8.0214 C.ar    1  UNL1        0.0105
     31 C          60.6408   89.1572    9.0497 C.ar    1  UNL1        0.0042
     32 C          60.6835   87.6707    8.8535 C.ar    1  UNL1        0.0370
     33 C          61.2714   84.9424    6.7161 C.3     1  UNL1        0.2525
     34 O          60.1137   85.5712    7.4332 O.3     1  UNL1       -0.4714
     35 C          58.7175   90.2915    5.7688 C.1     1  UNL1        0.1005
     36 N          58.0622   91.1652    4.7405 N.1     1  UNL1       -0.1908
@<TRIPOS>BOND
     1    33    34    1
     2    34    27    1
     3    27    28   ar
     4    28    29   ar
     5    29    35    1
     6    35    36    3
     7    29    30   ar
     8    30    31   ar
     9    31    22    1
    10    22    23   ar
    11    23    24   ar
    12    24    25   ar
    13     1    25    1
    14     1     2    1
    15     2     3    1
    16     3    15    1
    17    15    16   ar
    18    16    17   ar
    19    17    18   ar
    20    18    19    1
    21    18    20   ar
    22    20    21   ar
    23     3     4    1
    24     5     4    1
    25     5     6    1
    26     6     7    2
    27     6     8   am
    28     8     9    1
    29     8    10    1
    30    10    11    2
    31    10    12    1
    32    25    26   ar
    33    31    32   ar
    34    32    27   ar
    35    26    22   ar
    36     5     1    1
    37    12     1    1
    38    21    15   ar
    39    11    13    1
    40    12    14    1
