@<TRIPOS>MOLECULE
*****
 33 37 0 0 0
SMALL
GASTEIGER

@<TRIPOS>ATOM
      1 C          62.4793   85.0209   10.9895 C.ar    1  UNL1        0.0004
      2 C          61.8144   85.4151    9.7041 C.ar    1  UNL1        0.0031
      3 C          61.6505   86.8655    9.3586 C.ar    1  UNL1        0.0370
      4 C          62.1515   87.9217   10.2985 C.ar    1  UNL1        0.1415
      5 C          62.8165   87.5274   11.5840 C.ar    1  UNL1        0.0699
      6 C          62.9803   86.0770   11.9295 C.ar    1  UNL1        0.0061
      7 C          63.3832   88.4130   12.6537 C.ar    1  UNL1        0.1718
      8 N          64.0280   87.8907   13.9033 N.ar    1  UNL1       -0.1258
      9 N          64.4683   89.0665   14.7241 N.ar    1  UNL1       -0.0913
     10 C          64.0956   90.3155   13.9818 C.ar    1  UNL1        0.3249
     11 N          63.4250   89.9117   12.7023 N.ar    1  UNL1       -0.2613
     12 C          62.9104   90.8948   11.6930 C.3     1  UNL1        0.1592
     13 C          62.2269   90.6222   10.3859 C.3     1  UNL1        0.2299
     14 O          61.8892   89.2989    9.7653 O.3     1  UNL1       -0.4733
     15 C          61.7455   81.0684   14.2820 C.3     1  UNL1        0.0521
     16 C          62.2763   81.5942   12.9814 C.ar    1  UNL1        0.0594
     17 C          62.1124   83.0447   12.6358 C.ar    1  UNL1        0.0147
     18 C          62.6432   83.5704   11.3351 C.ar    1  UNL1        0.0027
     19 C          63.3379   82.6457   10.3800 C.ar    1  UNL1        0.0207
     20 C          63.5019   81.1953   10.7255 C.ar    1  UNL1        0.0984
     21 N          62.9710   80.6695   12.0262 N.ar    1  UNL1       -0.2481
     22 O          64.3491   91.7215   14.4389 O.3     1  UNL1       -0.4193
     23 C          65.7485   92.1731   14.7353 C.ar    1  UNL1        0.1826
     24 C          66.1673   92.4371   16.1512 C.ar    1  UNL1        0.0408
     25 C          67.5667   92.8887   16.4475 C.ar    1  UNL1        0.0033
     26 C          68.5472   93.0762   15.3280 C.ar    1  UNL1        0.0033
     27 C          68.1284   92.8122   13.9120 C.ar    1  UNL1        0.0404
     28 C          66.7290   92.3606   13.6157 C.ar    1  UNL1        0.1811
     29 O          66.3102   92.0965   12.1998 O.3     1  UNL1       -0.4013
     30 C          66.5484   93.1325   11.1415 C.3     1  UNL1        0.5754
     31 F          66.7866   94.1685   10.0832 F       1  UNL1       -0.1328
     32 F          67.3521   92.1418   10.3525 F       1  UNL1       -0.1328
     33 F          65.7447   94.1233   11.9305 F       1  UNL1       -0.1328
@<TRIPOS>BOND
     1    15    16    1
     2    16    17   ar
     3    17    18   ar
     4    18     1    1
     5     1     2   ar
     6     2     3   ar
     7     3     4   ar
     8     4     5   ar
     9     5     6   ar
    10     5     7    1
    11     7     8   ar
    12     8     9   ar
    13     9    10   ar
    14    10    22    1
    15    22    23    1
    16    23    24   ar
    17    24    25   ar
    18    25    26   ar
    19    26    27   ar
    20    27    28   ar
    21    28    29    1
    22    29    30    1
    23    30    31    1
    24    30    32    1
    25    30    33    1
    26    10    11   ar
    27    11    12    1
    28    12    13    1
    29    13    14    1
    30    18    19   ar
    31    19    20   ar
    32    20    21   ar
    33    21    16   ar
    34     6     1   ar
    35    11     7   ar
    36    14     4    1
    37    28    23   ar
@<TRIPOS>MOLECULE
*****
 33 37 0 0 0
SMALL
GASTEIGER

@<TRIPOS>ATOM
      1 C          65.8469   93.1053   12.2283 C.ar    1  UNL1        0.0004
      2 C          66.4243   93.0128   13.6096 C.ar    1  UNL1        0.0031
      3 C          66.1079   91.8308   14.4771 C.ar    1  UNL1        0.0370
      4 C          65.2141   90.7412   13.9633 C.ar    1  UNL1        0.1415
      5 C          64.6366   90.8337   12.5820 C.ar    1  UNL1        0.0699
      6 C          64.9530   92.0158   11.7145 C.ar    1  UNL1        0.0061
      7 C          63.7303   89.8661   11.8805 C.ar    1  UNL1        0.1718
      8 N          63.2178   90.0758   10.4864 N.ar    1  UNL1       -0.1258
      9 N          62.3483   88.9061   10.1313 N.ar    1  UNL1       -0.0913
     10 C          62.3235   87.9736   11.3059 C.ar    1  UNL1        0.3249
     11 N          63.1776   88.5668   12.3870 N.ar    1  UNL1       -0.2613
     12 C          63.3947   87.9144   13.7201 C.3     1  UNL1        0.1592
     13 C          64.2181   88.4000   14.8760 C.3     1  UNL1        0.2299
     14 O          65.0279   89.6581   14.9842 O.3     1  UNL1       -0.4733
     15 C          67.2288   95.0616    7.6171 C.3     1  UNL1        0.0521
     16 C          66.8542   95.2656    9.0551 C.ar    1  UNL1        0.0594
     17 C          66.5378   94.0835    9.9227 C.ar    1  UNL1        0.0147
     18 C          66.1632   94.2874   11.3607 C.ar    1  UNL1        0.0027
     19 C          66.1050   95.6735   11.9313 C.ar    1  UNL1        0.0207
     20 C          66.4213   96.8555   11.0638 C.ar    1  UNL1        0.0984
     21 N          66.7960   96.6516    9.6257 N.ar    1  UNL1       -0.2481
     22 O          61.5758   86.6757   11.3855 O.3     1  UNL1       -0.4193
     23 C          62.3204   85.3755   11.3132 C.ar    1  UNL1        0.1826
     24 C          62.4907   84.5393   12.5468 C.ar    1  UNL1        0.0408
     25 C          63.2353   83.2390   12.4745 C.ar    1  UNL1        0.0033
     26 C          63.8094   82.7752   11.1687 C.ar    1  UNL1        0.0033
     27 C          63.6390   83.6114    9.9351 C.ar    1  UNL1        0.0404
     28 C          62.8945   84.9116   10.0074 C.ar    1  UNL1        0.1811
     29 O          62.7241   85.7479    8.7739 O.3     1  UNL1       -0.4013
     30 C          61.7512   85.3287    7.7120 C.3     1  UNL1        0.5754
     31 F          60.7782   84.9095    6.6501 F       1  UNL1       -0.1328
     32 F          60.6231   85.8966    8.5214 F       1  UNL1       -0.1328
     33 F          62.8792   84.7609    6.9026 F       1  UNL1       -0.1328
@<TRIPOS>BOND
     1    15    16    1
     2    16    17   ar
     3    17    18   ar
     4    18     1    1
     5     1     2   ar
     6     2     3   ar
     7     3     4   ar
     8     4     5   ar
     9     5     6   ar
    10     5     7    1
    11     7     8   ar
    12     8     9   ar
    13     9    10   ar
    14    10    22    1
    15    22    23    1
    16    23    24   ar
    17    24    25   ar
    18    25    26   ar
    19    26    27   ar
    20    27    28   ar
    21    28    29    1
    22    29    30    1
    23    30    31    1
    24    30    32    1
    25    30    33    1
    26    10    11   ar
    27    11    12    1
    28    12    13    1
    29    13    14    1
    30    18    19   ar
    31    19    20   ar
    32    20    21   ar
    33    21    16   ar
    34     6     1   ar
    35    11     7   ar
    36    14     4    1
    37    28    23   ar
@<TRIPOS>MOLECULE
*****
 33 37 0 0 0
SMALL
GASTEIGER

@<TRIPOS>ATOM
      1 C          62.0717   86.0852   10.4212 C.ar    1  UNL1        0.0004
      2 C          62.3368   84.8921   11.2909 C.ar    1  UNL1        0.0031
      3 C          62.9691   85.0724   12.6390 C.ar    1  UNL1        0.0370
      4 C          63.3365   86.4458   13.1175 C.ar    1  UNL1        0.1415
      5 C          63.0715   87.6388   12.2479 C.ar    1  UNL1        0.0699
      6 C          62.4391   87.4585   10.8997 C.ar    1  UNL1        0.0061
      7 C          63.3575   89.0840   12.5302 C.ar    1  UNL1        0.1718
      8 N          63.0418   90.1919   11.5695 N.ar    1  UNL1       -0.1258
      9 N          63.4684   91.4856   12.1975 N.ar    1  UNL1       -0.0913
     10 C          64.0477   91.1772   13.5463 C.ar    1  UNL1        0.3249
     11 N          63.9792   89.6930   13.7519 N.ar    1  UNL1       -0.2613
     12 C          64.4684   89.0072   14.9930 C.3     1  UNL1        0.1592
     13 C          64.4568   87.5432   15.3190 C.3     1  UNL1        0.2299
     14 O          63.9530   86.4032   14.4843 O.3     1  UNL1       -0.4733
     15 C          62.2539   84.2059    5.5802 C.3     1  UNL1        0.0521
     16 C          61.5304   84.9653    6.6525 C.ar    1  UNL1        0.0594
     17 C          62.1628   85.1456    8.0007 C.ar    1  UNL1        0.0147
     18 C          61.4393   85.9050    9.0730 C.ar    1  UNL1        0.0027
     19 C          60.0834   86.4841    8.7972 C.ar    1  UNL1        0.0207
     20 C          59.4510   86.3039    7.4490 C.ar    1  UNL1        0.0984
     21 N          60.1745   85.5445    6.3766 N.ar    1  UNL1       -0.2481
     22 O          64.5988   92.1776   14.5187 O.3     1  UNL1       -0.4193
     23 C          66.0794   92.2705   14.7411 C.ar    1  UNL1        0.1826
     24 C          66.6190   92.4606   16.1277 C.ar    1  UNL1        0.0408
     25 C          68.0996   92.5535   16.3500 C.ar    1  UNL1        0.0033
     26 C          69.0403   92.4564   15.1857 C.ar    1  UNL1        0.0033
     27 C          68.5007   92.2663   13.7991 C.ar    1  UNL1        0.0404
     28 C          67.0201   92.1734   13.5768 C.ar    1  UNL1        0.1811
     29 O          66.4805   91.9834   12.1902 O.3     1  UNL1       -0.4013
     30 C          66.7087   93.0355   11.1458 C.3     1  UNL1        0.5754
     31 F          66.9370   94.0877   10.1013 F       1  UNL1       -0.1328
     32 F          67.6979   92.1403   10.4600 F       1  UNL1       -0.1328
     33 F          65.7196   93.9308   11.8315 F       1  UNL1       -0.1328
@<TRIPOS>BOND
     1    15    16    1
     2    16    17   ar
     3    17    18   ar
     4    18     1    1
     5     1     2   ar
     6     2     3   ar
     7     3     4   ar
     8     4     5   ar
     9     5     6   ar
    10     5     7    1
    11     7     8   ar
    12     8     9   ar
    13     9    10   ar
    14    10    22    1
    15    22    23    1
    16    23    24   ar
    17    24    25   ar
    18    25    26   ar
    19    26    27   ar
    20    27    28   ar
    21    28    29    1
    22    29    30    1
    23    30    31    1
    24    30    32    1
    25    30    33    1
    26    10    11   ar
    27    11    12    1
    28    12    13    1
    29    13    14    1
    30    18    19   ar
    31    19    20   ar
    32    20    21   ar
    33    21    16   ar
    34     6     1   ar
    35    11     7   ar
    36    14     4    1
    37    28    23   ar
@<TRIPOS>MOLECULE
*****
 33 37 0 0 0
SMALL
GASTEIGER

@<TRIPOS>ATOM
      1 C          62.5293   84.6155   11.8994 C.ar    1  UNL1        0.0004
      2 C          61.7919   84.6547   10.5938 C.ar    1  UNL1        0.0031
      3 C          61.5443   85.9674    9.9115 C.ar    1  UNL1        0.0370
      4 C          62.0343   87.2408   10.5347 C.ar    1  UNL1        0.1415
      5 C          62.7717   87.2015   11.8403 C.ar    1  UNL1        0.0699
      6 C          63.0193   85.8889   12.5226 C.ar    1  UNL1        0.0061
      7 C          63.3410   88.3443   12.6276 C.ar    1  UNL1        0.1718
      8 N          64.0629   88.1714   13.9310 N.ar    1  UNL1       -0.1258
      9 N          64.4815   89.5289   14.4127 N.ar    1  UNL1       -0.0913
     10 C          64.0182   90.5408   13.4070 C.ar    1  UNL1        0.3249
     11 N          63.3133   89.8087   12.3038 N.ar    1  UNL1       -0.2613
     12 C          62.7096   90.4919   11.1126 C.3     1  UNL1        0.1592
     13 C          61.9845   89.8795    9.9512 C.3     1  UNL1        0.2299
     14 O          61.6839   88.4325    9.6940 O.3     1  UNL1       -0.4733
     15 C          62.6473   79.4225   11.7593 C.3     1  UNL1        0.0521
     16 C          62.8358   80.7063   12.5118 C.ar    1  UNL1        0.0594
     17 C          62.5883   82.0190   11.8294 C.ar    1  UNL1        0.0147
     18 C          62.7769   83.3028   12.5818 C.ar    1  UNL1        0.0027
     19 C          63.2130   83.2740   14.0168 C.ar    1  UNL1        0.0207
     20 C          63.4605   81.9614   14.6992 C.ar    1  UNL1        0.0984
     21 N          63.2719   80.6775   13.9467 N.ar    1  UNL1       -0.2481
     22 O          64.2237   92.0243   13.4901 O.3     1  UNL1       -0.4193
     23 C          65.1357   92.7109   12.5170 C.ar    1  UNL1        0.1826
     24 C          64.8773   92.6039   11.0433 C.ar    1  UNL1        0.0408
     25 C          65.7894   93.2905   10.0702 C.ar    1  UNL1        0.0033
     26 C          66.9597   94.0840   10.5709 C.ar    1  UNL1        0.0033
     27 C          67.2181   94.1909   12.0446 C.ar    1  UNL1        0.0404
     28 C          66.3060   93.5043   13.0176 C.ar    1  UNL1        0.1811
     29 O          66.5644   93.6113   14.4913 O.3     1  UNL1       -0.4013
     30 C          67.7503   92.9208   15.0970 C.3     1  UNL1        0.5754
     31 F          68.9362   92.2303   15.7027 F       1  UNL1       -0.1328
     32 F          67.3383   91.6368   14.4400 F       1  UNL1       -0.1328
     33 F          68.1624   94.2048   15.7540 F       1  UNL1       -0.1328
@<TRIPOS>BOND
     1    15    16    1
     2    16    17   ar
     3    17    18   ar
     4    18     1    1
     5     1     2   ar
     6     2     3   ar
     7     3     4   ar
     8     4     5   ar
     9     5     6   ar
    10     5     7    1
    11     7     8   ar
    12     8     9   ar
    13     9    10   ar
    14    10    22    1
    15    22    23    1
    16    23    24   ar
    17    24    25   ar
    18    25    26   ar
    19    26    27   ar
    20    27    28   ar
    21    28    29    1
    22    29    30    1
    23    30    31    1
    24    30    32    1
    25    30    33    1
    26    10    11   ar
    27    11    12    1
    28    12    13    1
    29    13    14    1
    30    18    19   ar
    31    19    20   ar
    32    20    21   ar
    33    21    16   ar
    34     6     1   ar
    35    11     7   ar
    36    14     4    1
    37    28    23   ar
