@<TRIPOS>MOLECULE
*****
 30 34 0 0 0
SMALL
GASTEIGER

@<TRIPOS>ATOM
      1 C          62.1717   85.9731   10.9261 C.ar    1  UNL1        0.0846
      2 C          60.9967   86.2120   10.0248 C.ar    1  UNL1        0.0370
      3 C          60.5872   87.6480   10.1677 C.ar    1  UNL1        0.0967
      4 N          61.5092   88.2966   11.1574 N.ar    1  UNL1       -0.2452
      5 N          62.4885   87.2614   11.6261 N.ar    1  UNL1       -0.1730
      6 C          62.9018   84.6741   11.0973 C.3     1  UNL1        0.0757
      7 N          64.2366   85.4546   16.0580 N.pl3   1  UNL1       -0.3441
      8 C          63.8289   84.5255   14.9533 C.ar    1  UNL1        0.1035
      9 C          63.5692   85.0644   13.5777 C.ar    1  UNL1        0.0297
     10 C          63.1614   84.1353   12.4729 C.ar    1  UNL1        0.0090
     11 C          63.0133   82.6674   12.7437 C.ar    1  UNL1        0.1366
     12 N          62.6279   81.5177   11.8606 N.ar    1  UNL1       -0.1258
     13 N          62.6493   80.2683   12.6905 N.ar    1  UNL1       -0.0406
     14 N          63.0481   80.6459   14.0864 N.ar    1  UNL1       -0.1095
     15 C          63.2730   82.1285   14.1193 C.ar    1  UNL1        0.1838
     16 N          63.6808   83.0576   15.2240 N.ar    1  UNL1       -0.3249
     17 H          64.3338   86.4180   15.8803 H       1  UNL1        0.1437
     18 H          64.4070   85.1009   16.9608 H       1  UNL1        0.1437
     19 H          63.8512   82.7040   16.1269 H       1  UNL1        0.1686
     20 C          61.4605   89.7288   11.6006 C.3     1  UNL1        0.1538
     21 C          62.7288   90.5209   11.7187 C.ar    1  UNL1        0.0021
     22 C          63.2424   91.2945   10.5406 C.ar    1  UNL1       -0.0023
     23 C          64.5107   92.0866   10.6587 C.ar    1  UNL1        0.0013
     24 C          65.2655   92.1051   11.9549 C.ar    1  UNL1        0.0192
     25 C          66.5338   92.8972   12.0729 C.ar    1  UNL1        0.0988
     26 N          67.2886   92.9157   13.3690 N.ar    1  UNL1       -0.2423
     27 C          66.7750   92.1420   14.5471 C.ar    1  UNL1        0.0989
     28 C          65.5067   91.3499   14.4290 C.ar    1  UNL1        0.0207
     29 C          64.7520   91.3315   13.1329 C.ar    1  UNL1        0.0028
     30 C          63.4836   90.5393   13.0148 C.ar    1  UNL1       -0.0022
@<TRIPOS>BOND
     1     7     8    1
     2     8     9   ar
     3     9    10   ar
     4    10     6    1
     5     6     1    1
     6     1     2   ar
     7     2     3   ar
     8     3     4   ar
     9     4    20    1
    10    20    21    1
    11    21    22   ar
    12    22    23   ar
    13    23    24   ar
    14    24    25   ar
    15    25    26   ar
    16    26    27   ar
    17    27    28   ar
    18    28    29   ar
    19    29    30   ar
    20     4     5   ar
    21    10    11   ar
    22    11    12   ar
    23    12    13   ar
    24    13    14   ar
    25    14    15   ar
    26    15    16   ar
    27    16     8   ar
    28     5     1   ar
    29    15    11    1
    30    30    21   ar
    31    29    24   ar
    32     7    17    1
    33     7    18    1
    34    16    19    1
@<TRIPOS>MOLECULE
*****
 30 34 0 0 0
SMALL
GASTEIGER

@<TRIPOS>ATOM
      1 C          62.2938   85.8389   10.9150 C.ar    1  UNL1        0.0846
      2 C          61.1349   86.0097    9.9780 C.ar    1  UNL1        0.0370
      3 C          60.6690   87.4324   10.0713 C.ar    1  UNL1        0.0967
      4 N          61.5399   88.1410   11.0661 N.ar    1  UNL1       -0.2452
      5 N          62.5441   87.1562   11.5875 N.ar    1  UNL1       -0.1730
      6 C          63.0666   84.5732   11.1399 C.3     1  UNL1        0.0757
      7 N          61.8497   80.0582   13.4055 N.pl3   1  UNL1       -0.3441
      8 C          62.2264   81.5060   13.5140 C.ar    1  UNL1        0.1035
      9 C          62.4581   82.3157   12.2727 C.ar    1  UNL1        0.0297
     10 C          62.8348   83.7635   12.3812 C.ar    1  UNL1        0.0090
     11 C          62.9798   84.4018   13.7309 C.ar    1  UNL1        0.1366
     12 N          63.3379   85.7974   14.1480 N.ar    1  UNL1       -0.1258
     13 N          63.3275   85.8503   15.6470 N.ar    1  UNL1       -0.0406
     14 N          62.9630   84.4873   16.1563 N.ar    1  UNL1       -0.1095
     15 C          62.7481   83.5921   14.9722 C.ar    1  UNL1        0.1838
     16 N          62.3714   82.1442   14.8636 N.ar    1  UNL1       -0.3249
     17 H          61.7546   79.6393   12.5197 H       1  UNL1        0.1437
     18 H          61.6977   79.5268   14.2202 H       1  UNL1        0.1437
     19 H          62.2193   81.6127   15.6783 H       1  UNL1        0.1686
     20 C          61.4266   89.5815   11.4687 C.3     1  UNL1        0.1538
     21 C          62.6624   90.4196   11.6123 C.ar    1  UNL1        0.0021
     22 C          63.1682   91.2159   10.4461 C.ar    1  UNL1       -0.0023
     23 C          64.4039   92.0540   10.5897 C.ar    1  UNL1        0.0013
     24 C          65.1339   92.0957   11.8995 C.ar    1  UNL1        0.0192
     25 C          66.3696   92.9338   12.0430 C.ar    1  UNL1        0.0988
     26 N          67.0995   92.9755   13.3528 N.ar    1  UNL1       -0.2423
     27 C          66.5936   92.1792   14.5190 C.ar    1  UNL1        0.0989
     28 C          65.3579   91.3411   14.3754 C.ar    1  UNL1        0.0207
     29 C          64.6280   91.2994   13.0657 C.ar    1  UNL1        0.0028
     30 C          63.3923   90.4613   12.9221 C.ar    1  UNL1       -0.0022
@<TRIPOS>BOND
     1     7     8    1
     2     8     9   ar
     3     9    10   ar
     4    10     6    1
     5     6     1    1
     6     1     2   ar
     7     2     3   ar
     8     3     4   ar
     9     4    20    1
    10    20    21    1
    11    21    22   ar
    12    22    23   ar
    13    23    24   ar
    14    24    25   ar
    15    25    26   ar
    16    26    27   ar
    17    27    28   ar
    18    28    29   ar
    19    29    30   ar
    20     4     5   ar
    21    10    11   ar
    22    11    12   ar
    23    12    13   ar
    24    13    14   ar
    25    14    15   ar
    26    15    16   ar
    27    16     8   ar
    28     5     1   ar
    29    15    11    1
    30    30    21   ar
    31    29    24   ar
    32     7    17    1
    33     7    18    1
    34    16    19    1
@<TRIPOS>MOLECULE
*****
 30 34 0 0 0
SMALL
GASTEIGER

@<TRIPOS>ATOM
      1 C          61.3325   88.9473    9.7890 C.ar    1  UNL1        0.0846
      2 C          60.1782   88.2985    9.0841 C.ar    1  UNL1        0.0370
      3 C          60.6068   86.9251    8.6598 C.ar    1  UNL1        0.0967
      4 N          62.0261   86.7250    9.1025 N.ar    1  UNL1       -0.2452
      5 N          62.4745   87.9748    9.8004 N.ar    1  UNL1       -0.1730
      6 C          61.3428   90.3263   10.3789 C.3     1  UNL1        0.0757
      7 N          65.7646   93.0412   10.1008 N.pl3   1  UNL1       -0.3441
      8 C          64.7973   92.2113   10.8918 C.ar    1  UNL1        0.1035
      9 C          63.5537   91.6838   10.2398 C.ar    1  UNL1        0.0297
     10 C          62.5865   90.8539   11.0308 C.ar    1  UNL1        0.0090
     11 C          62.8628   90.5516   12.4738 C.ar    1  UNL1        0.1366
     12 N          62.0991   89.7669   13.4991 N.ar    1  UNL1       -0.1258
     13 N          62.8707   89.8094   14.7847 N.ar    1  UNL1       -0.0406
     14 N          64.1114   90.6205   14.5539 N.ar    1  UNL1       -0.1095
     15 C          64.1065   91.0791   13.1259 C.ar    1  UNL1        0.1838
     16 N          65.0737   91.9090   12.3348 N.ar    1  UNL1       -0.3249
     17 H          65.5832   93.2396    9.1537 H       1  UNL1        0.1437
     18 H          66.5808   93.3874   10.5287 H       1  UNL1        0.1437
     19 H          65.8899   92.2553   12.7627 H       1  UNL1        0.1686
     20 C          62.8518   85.4917    8.8855 C.3     1  UNL1        0.1538
     21 C          63.1352   84.5674   10.0324 C.ar    1  UNL1        0.0021
     22 C          63.9369   83.3194    9.8095 C.ar    1  UNL1       -0.0023
     23 C          64.2203   82.3951   10.9563 C.ar    1  UNL1        0.0013
     24 C          63.7020   82.7188   12.3263 C.ar    1  UNL1        0.0192
     25 C          63.9854   81.7945   13.4731 C.ar    1  UNL1        0.0988
     26 N          63.4671   82.1183   14.8430 N.ar    1  UNL1       -0.2423
     27 C          62.6654   83.3663   15.0659 C.ar    1  UNL1        0.0989
     28 C          62.3820   84.2906   13.9191 C.ar    1  UNL1        0.0207
     29 C          62.9003   83.9669   12.5492 C.ar    1  UNL1        0.0028
     30 C          62.6169   84.8912   11.4023 C.ar    1  UNL1       -0.0022
@<TRIPOS>BOND
     1     7     8    1
     2     8     9   ar
     3     9    10   ar
     4    10     6    1
     5     6     1    1
     6     1     2   ar
     7     2     3   ar
     8     3     4   ar
     9     4    20    1
    10    20    21    1
    11    21    22   ar
    12    22    23   ar
    13    23    24   ar
    14    24    25   ar
    15    25    26   ar
    16    26    27   ar
    17    27    28   ar
    18    28    29   ar
    19    29    30   ar
    20     4     5   ar
    21    10    11   ar
    22    11    12   ar
    23    12    13   ar
    24    13    14   ar
    25    14    15   ar
    26    15    16   ar
    27    16     8   ar
    28     5     1   ar
    29    15    11    1
    30    30    21   ar
    31    29    24   ar
    32     7    17    1
    33     7    18    1
    34    16    19    1
@<TRIPOS>MOLECULE
*****
 30 34 0 0 0
SMALL
GASTEIGER

@<TRIPOS>ATOM
      1 C          62.2205   90.1187   10.4371 C.ar    1  UNL1        0.0846
      2 C          60.7313   90.1232   10.2577 C.ar    1  UNL1        0.0370
      3 C          60.3259   88.7856    9.7133 C.ar    1  UNL1        0.0967
      4 N          61.5646   87.9543    9.5562 N.ar    1  UNL1       -0.2452
      5 N          62.7355   88.7782   10.0036 N.ar    1  UNL1       -0.1730
      6 C          63.0492   91.2550   10.9585 C.3     1  UNL1        0.0757
      7 N          63.4677   89.0092   15.6255 N.pl3   1  UNL1       -0.3441
      8 C          63.9501   90.0096   14.6174 C.ar    1  UNL1        0.1035
      9 C          63.2584   90.1321   13.2920 C.ar    1  UNL1        0.0297
     10 C          63.7409   91.1325   12.2839 C.ar    1  UNL1        0.0090
     11 C          64.9150   92.0105   12.6010 C.ar    1  UNL1        0.1366
     12 N          65.6108   93.0798   11.8121 N.ar    1  UNL1       -0.1258
     13 N          66.7326   93.6182   12.6498 N.ar    1  UNL1       -0.0406
     14 N          66.7300   92.8816   13.9566 N.ar    1  UNL1       -0.1095
     15 C          65.6067   91.8881   13.9264 C.ar    1  UNL1        0.1838
     16 N          65.1242   90.8876   14.9346 N.ar    1  UNL1       -0.3249
     17 H          62.6971   88.4330   15.4173 H       1  UNL1        0.1437
     18 H          63.9217   88.9289   16.4954 H       1  UNL1        0.1437
     19 H          65.5782   90.8072   15.8044 H       1  UNL1        0.1686
     20 C          61.6222   86.5463    9.0421 C.3     1  UNL1        0.1538
     21 C          62.2988   85.4796    9.8511 C.ar    1  UNL1        0.0021
     22 C          63.2163   84.4995    9.1821 C.ar    1  UNL1       -0.0023
     23 C          63.8928   83.4328    9.9910 C.ar    1  UNL1        0.0013
     24 C          63.6518   83.3461   11.4691 C.ar    1  UNL1        0.0192
     25 C          64.3282   82.2793   12.2780 C.ar    1  UNL1        0.0988
     26 N          64.0872   82.1927   13.7559 N.ar    1  UNL1       -0.2423
     27 C          63.1696   83.1728   14.4249 C.ar    1  UNL1        0.0989
     28 C          62.4932   84.2395   13.6160 C.ar    1  UNL1        0.0207
     29 C          62.7342   84.3261   12.1381 C.ar    1  UNL1        0.0028
     30 C          62.0577   85.3929   11.3291 C.ar    1  UNL1       -0.0022
@<TRIPOS>BOND
     1     7     8    1
     2     8     9   ar
     3     9    10   ar
     4    10     6    1
     5     6     1    1
     6     1     2   ar
     7     2     3   ar
     8     3     4   ar
     9     4    20    1
    10    20    21    1
    11    21    22   ar
    12    22    23   ar
    13    23    24   ar
    14    24    25   ar
    15    25    26   ar
    16    26    27   ar
    17    27    28   ar
    18    28    29   ar
    19    29    30   ar
    20     4     5   ar
    21    10    11   ar
    22    11    12   ar
    23    12    13   ar
    24    13    14   ar
    25    14    15   ar
    26    15    16   ar
    27    16     8   ar
    28     5     1   ar
    29    15    11    1
    30    30    21   ar
    31    29    24   ar
    32     7    17    1
    33     7    18    1
    34    16    19    1
@<TRIPOS>MOLECULE
*****
 30 34 0 0 0
SMALL
GASTEIGER

@<TRIPOS>ATOM
      1 C          62.8227   90.0716   11.8470 C.ar    1  UNL1        0.0846
      2 C          61.9412   90.7866   10.8663 C.ar    1  UNL1        0.0370
      3 C          61.4099   89.7735    9.8960 C.ar    1  UNL1        0.0967
      4 N          61.9631   88.4323   10.2771 N.ar    1  UNL1       -0.2452
      5 N          62.8362   88.6165   11.4828 N.ar    1  UNL1       -0.1730
      6 C          63.5609   90.7011   12.9908 C.3     1  UNL1        0.0757
      7 N          66.2251   93.6651    9.6567 N.pl3   1  UNL1       -0.3441
      8 C          65.9737   93.1884   11.0565 C.ar    1  UNL1        0.1035
      9 C          64.8930   92.1832   11.3237 C.ar    1  UNL1        0.0297
     10 C          64.6417   91.7064   12.7236 C.ar    1  UNL1        0.0090
     11 C          65.4711   92.2349   13.8562 C.ar    1  UNL1        0.1366
     12 N          65.4545   91.9526   15.3293 N.ar    1  UNL1       -0.1258
     13 N          66.5250   92.7834   15.9725 N.ar    1  UNL1       -0.0406
     14 N          67.2032   93.5792   14.8969 N.ar    1  UNL1       -0.1095
     15 C          66.5519   93.2402   13.5890 C.ar    1  UNL1        0.1838
     16 N          66.8031   93.7169   12.1891 N.ar    1  UNL1       -0.3249
     17 H          65.6807   93.3183    8.9134 H       1  UNL1        0.1437
     18 H          66.9344   94.3249    9.4814 H       1  UNL1        0.1437
     19 H          67.5125   94.3767   12.0137 H       1  UNL1        0.1686
     20 C          61.6909   87.1346    9.5756 C.3     1  UNL1        0.1538
     21 C          62.3148   85.8659   10.0768 C.ar    1  UNL1        0.0021
     22 C          63.1003   84.9958    9.1409 C.ar    1  UNL1       -0.0023
     23 C          63.7242   83.7271    9.6421 C.ar    1  UNL1        0.0013
     24 C          63.5625   83.3284   11.0791 C.ar    1  UNL1        0.0192
     25 C          64.1864   82.0597   11.5802 C.ar    1  UNL1        0.0988
     26 N          64.0247   81.6611   13.0172 N.ar    1  UNL1       -0.2423
     27 C          63.2391   82.5312   13.9530 C.ar    1  UNL1        0.0989
     28 C          62.6153   83.7999   13.4519 C.ar    1  UNL1        0.0207
     29 C          62.7770   84.1985   12.0150 C.ar    1  UNL1        0.0028
     30 C          62.1531   85.4673   11.5138 C.ar    1  UNL1       -0.0022
@<TRIPOS>BOND
     1     7     8    1
     2     8     9   ar
     3     9    10   ar
     4    10     6    1
     5     6     1    1
     6     1     2   ar
     7     2     3   ar
     8     3     4   ar
     9     4    20    1
    10    20    21    1
    11    21    22   ar
    12    22    23   ar
    13    23    24   ar
    14    24    25   ar
    15    25    26   ar
    16    26    27   ar
    17    27    28   ar
    18    28    29   ar
    19    29    30   ar
    20     4     5   ar
    21    10    11   ar
    22    11    12   ar
    23    12    13   ar
    24    13    14   ar
    25    14    15   ar
    26    15    16   ar
    27    16     8   ar
    28     5     1   ar
    29    15    11    1
    30    30    21   ar
    31    29    24   ar
    32     7    17    1
    33     7    18    1
    34    16    19    1
@<TRIPOS>MOLECULE
*****
 30 34 0 0 0
SMALL
GASTEIGER

@<TRIPOS>ATOM
      1 C          63.7614   89.3368   14.7205 C.ar    1  UNL1        0.0846
      2 C          63.0992   89.4797   16.0588 C.ar    1  UNL1        0.0370
      3 C          63.1517   88.1477   16.7466 C.ar    1  UNL1        0.0967
      4 N          63.8464   87.1815   15.8333 N.ar    1  UNL1       -0.2452
      5 N          64.2232   87.9164   14.5811 N.ar    1  UNL1       -0.1730
      6 C          63.9318   90.4234   13.7007 C.3     1  UNL1        0.0757
      7 N          68.0783   92.2701   16.2295 N.pl3   1  UNL1       -0.3441
      8 C          67.2222   92.2228   14.9988 C.ar    1  UNL1        0.1035
      9 C          66.0051   91.3468   14.9651 C.ar    1  UNL1        0.0297
     10 C          65.1489   91.2995   13.7344 C.ar    1  UNL1        0.0090
     11 C          65.5098   92.1283   12.5374 C.ar    1  UNL1        0.1366
     12 N          64.8617   92.2867   11.1939 N.ar    1  UNL1       -0.1258
     13 N          65.6782   93.2607   10.3973 N.ar    1  UNL1       -0.0406
     14 N          66.8310   93.7042   11.2485 N.ar    1  UNL1       -0.1095
     15 C          66.7269   93.0044   12.5711 C.ar    1  UNL1        0.1838
     16 N          67.5830   93.0516   13.8018 N.ar    1  UNL1       -0.3249
     17 H          67.8415   91.7262   17.0151 H       1  UNL1        0.1437
     18 H          68.8771   92.8452   16.2516 H       1  UNL1        0.1437
     19 H          68.3819   93.6266   13.8240 H       1  UNL1        0.1686
     20 C          64.1168   85.7345   16.1216 C.3     1  UNL1        0.1538
     21 C          63.6947   84.6824   15.1392 C.ar    1  UNL1        0.0021
     22 C          62.6089   83.7122   15.4996 C.ar    1  UNL1       -0.0023
     23 C          62.1868   82.6602   14.5174 C.ar    1  UNL1        0.0013
     24 C          62.8504   82.5783   13.1746 C.ar    1  UNL1        0.0192
     25 C          62.4283   81.5262   12.1923 C.ar    1  UNL1        0.0988
     26 N          63.0919   81.4444   10.8496 N.ar    1  UNL1       -0.2423
     27 C          64.1777   82.4146   10.4892 C.ar    1  UNL1        0.0989
     28 C          64.5998   83.4666   11.4715 C.ar    1  UNL1        0.0207
     29 C          63.9362   83.5485   12.8142 C.ar    1  UNL1        0.0028
     30 C          64.3583   84.6006   13.7965 C.ar    1  UNL1       -0.0022
@<TRIPOS>BOND
     1     7     8    1
     2     8     9   ar
     3     9    10   ar
     4    10     6    1
     5     6     1    1
     6     1     2   ar
     7     2     3   ar
     8     3     4   ar
     9     4    20    1
    10    20    21    1
    11    21    22   ar
    12    22    23   ar
    13    23    24   ar
    14    24    25   ar
    15    25    26   ar
    16    26    27   ar
    17    27    28   ar
    18    28    29   ar
    19    29    30   ar
    20     4     5   ar
    21    10    11   ar
    22    11    12   ar
    23    12    13   ar
    24    13    14   ar
    25    14    15   ar
    26    15    16   ar
    27    16     8   ar
    28     5     1   ar
    29    15    11    1
    30    30    21   ar
    31    29    24   ar
    32     7    17    1
    33     7    18    1
    34    16    19    1
@<TRIPOS>MOLECULE
*****
 30 34 0 0 0
SMALL
GASTEIGER

@<TRIPOS>ATOM
      1 C          62.5488   90.5544   10.6896 C.ar    1  UNL1        0.0846
      2 C          61.0873   90.7146   10.9871 C.ar    1  UNL1        0.0370
      3 C          60.3859   89.4615   10.5538 C.ar    1  UNL1        0.0967
      4 N          61.4140   88.5267    9.9886 N.ar    1  UNL1       -0.2452
      5 N          62.7507   89.2022   10.0726 N.ar    1  UNL1       -0.1730
      6 C          63.6202   91.5683   10.9615 C.3     1  UNL1        0.0757
      7 N          67.8383   92.7629   13.7507 N.pl3   1  UNL1       -0.3441
      8 C          66.4802   92.1336   13.6542 C.ar    1  UNL1        0.1035
      9 C          65.7293   92.1656   12.3561 C.ar    1  UNL1        0.0297
     10 C          64.3711   91.5363   12.2596 C.ar    1  UNL1        0.0090
     11 C          63.7638   90.8749   13.4612 C.ar    1  UNL1        0.1366
     12 N          62.4526   90.1761   13.6669 N.ar    1  UNL1       -0.1258
     13 N          62.3931   89.7122   15.0921 N.ar    1  UNL1       -0.0406
     14 N          63.6676   90.1243   15.7672 N.ar    1  UNL1       -0.1095
     15 C          64.5148   90.8429   14.7594 C.ar    1  UNL1        0.1838
     16 N          65.8730   91.4722   14.8558 N.ar    1  UNL1       -0.3249
     17 H          68.2369   93.1970   12.9621 H       1  UNL1        0.1437
     18 H          68.3312   92.7418   14.6027 H       1  UNL1        0.1437
     19 H          66.3658   91.4512   15.7078 H       1  UNL1        0.1686
     20 C          61.1515   87.1570    9.4364 C.3     1  UNL1        0.1538
     21 C          61.9652   85.9889    9.9095 C.ar    1  UNL1        0.0021
     22 C          62.8169   85.2260    8.9387 C.ar    1  UNL1       -0.0023
     23 C          63.6306   84.0580    9.4117 C.ar    1  UNL1        0.0013
     24 C          63.5926   83.6530   10.8555 C.ar    1  UNL1        0.0192
     25 C          64.4062   82.4850   11.3285 C.ar    1  UNL1        0.0988
     26 N          64.3682   82.0800   12.7722 N.ar    1  UNL1       -0.2423
     27 C          63.5164   82.8430   13.7430 C.ar    1  UNL1        0.0989
     28 C          62.7027   84.0110   13.2700 C.ar    1  UNL1        0.0207
     29 C          62.7408   84.4159   11.8263 C.ar    1  UNL1        0.0028
     30 C          61.9271   85.5840   11.3532 C.ar    1  UNL1       -0.0022
@<TRIPOS>BOND
     1     7     8    1
     2     8     9   ar
     3     9    10   ar
     4    10     6    1
     5     6     1    1
     6     1     2   ar
     7     2     3   ar
     8     3     4   ar
     9     4    20    1
    10    20    21    1
    11    21    22   ar
    12    22    23   ar
    13    23    24   ar
    14    24    25   ar
    15    25    26   ar
    16    26    27   ar
    17    27    28   ar
    18    28    29   ar
    19    29    30   ar
    20     4     5   ar
    21    10    11   ar
    22    11    12   ar
    23    12    13   ar
    24    13    14   ar
    25    14    15   ar
    26    15    16   ar
    27    16     8   ar
    28     5     1   ar
    29    15    11    1
    30    30    21   ar
    31    29    24   ar
    32     7    17    1
    33     7    18    1
    34    16    19    1
@<TRIPOS>MOLECULE
*****
 30 34 0 0 0
SMALL
GASTEIGER

@<TRIPOS>ATOM
      1 C          63.8910   85.9637   15.7280 C.ar    1  UNL1        0.0846
      2 C          63.1263   86.1024   17.0110 C.ar    1  UNL1        0.0370
      3 C          62.8811   87.5630   17.2489 C.ar    1  UNL1        0.0967
      4 N          63.4943   88.3270   16.1129 N.ar    1  UNL1       -0.2452
      5 N          64.1184   87.3386   15.1730 N.ar    1  UNL1       -0.1730
      6 C          64.3480   84.6762   15.1089 C.3     1  UNL1        0.0757
      7 N          62.4171   85.5935   10.3729 N.pl3   1  UNL1       -0.3441
      8 C          62.7352   84.6363   11.4829 C.ar    1  UNL1        0.1035
      9 C          63.3825   85.1349   12.7409 C.ar    1  UNL1        0.0297
     10 C          63.7007   84.1776   13.8510 C.ar    1  UNL1        0.0090
     11 C          63.3717   82.7216   13.7032 C.ar    1  UNL1        0.1366
     12 N          63.5657   81.5506   14.6202 N.ar    1  UNL1       -0.1258
     13 N          63.0383   80.3282   13.9291 N.ar    1  UNL1       -0.0406
     14 N          62.5184   80.7438   12.5849 N.ar    1  UNL1       -0.1095
     15 C          62.7243   82.2229   12.4452 C.ar    1  UNL1        0.1838
     16 N          62.4062   83.1803   11.3351 N.ar    1  UNL1       -0.3249
     17 H          62.6330   86.5491   10.4699 H       1  UNL1        0.1437
     18 H          61.9922   85.2662    9.5473 H       1  UNL1        0.1437
     19 H          61.9813   82.8530   10.5095 H       1  UNL1        0.1686
     20 C          63.4849   89.8177   15.9461 C.3     1  UNL1        0.1538
     21 C          63.7916   90.4247   14.6091 C.ar    1  UNL1        0.0021
     22 C          62.9369   90.0943   13.4216 C.ar    1  UNL1       -0.0023
     23 C          63.2435   90.7013   12.0846 C.ar    1  UNL1        0.0013
     24 C          64.4050   91.6388   11.9351 C.ar    1  UNL1        0.0192
     25 C          64.7116   92.2457   10.5982 C.ar    1  UNL1        0.0988
     26 N          65.8730   93.1831   10.4488 N.ar    1  UNL1       -0.2423
     27 C          66.7278   93.5136   11.6363 C.ar    1  UNL1        0.0989
     28 C          66.4211   92.9066   12.9732 C.ar    1  UNL1        0.0207
     29 C          65.2597   91.9692   13.1227 C.ar    1  UNL1        0.0028
     30 C          64.9530   91.3621   14.4597 C.ar    1  UNL1       -0.0022
@<TRIPOS>BOND
     1     7     8    1
     2     8     9   ar
     3     9    10   ar
     4    10     6    1
     5     6     1    1
     6     1     2   ar
     7     2     3   ar
     8     3     4   ar
     9     4    20    1
    10    20    21    1
    11    21    22   ar
    12    22    23   ar
    13    23    24   ar
    14    24    25   ar
    15    25    26   ar
    16    26    27   ar
    17    27    28   ar
    18    28    29   ar
    19    29    30   ar
    20     4     5   ar
    21    10    11   ar
    22    11    12   ar
    23    12    13   ar
    24    13    14   ar
    25    14    15   ar
    26    15    16   ar
    27    16     8   ar
    28     5     1   ar
    29    15    11    1
    30    30    21   ar
    31    29    24   ar
    32     7    17    1
    33     7    18    1
    34    16    19    1
@<TRIPOS>MOLECULE
*****
 30 34 0 0 0
SMALL
GASTEIGER

@<TRIPOS>ATOM
      1 C          63.0244   84.3753   11.3665 C.ar    1  UNL1        0.0846
      2 C          62.8377   82.9561   11.8149 C.ar    1  UNL1        0.0370
      3 C          63.1392   82.8903   13.2829 C.ar    1  UNL1        0.0967
      4 N          63.5123   84.2689   13.7417 N.ar    1  UNL1       -0.2452
      5 N          63.4414   85.1866   12.5573 N.ar    1  UNL1       -0.1730
      6 C          62.8286   84.8923    9.9722 C.3     1  UNL1        0.0757
      7 N          58.7028   86.5413    7.2782 N.pl3   1  UNL1       -0.3441
      8 C          59.7260   86.7631    8.3522 C.ar    1  UNL1        0.1035
      9 C          60.7657   85.7168    8.6251 C.ar    1  UNL1        0.0297
     10 C          61.7890   85.9385    9.6993 C.ar    1  UNL1        0.0090
     11 C          61.7726   87.2065   10.5005 C.ar    1  UNL1        0.1366
     12 N          62.6468   87.7012   11.6145 N.ar    1  UNL1       -0.1258
     13 N          62.1475   89.0532   12.0302 N.ar    1  UNL1       -0.0406
     14 N          60.9646   89.3941   11.1730 N.ar    1  UNL1       -0.1095
     15 C          60.7330   88.2528   10.2276 C.ar    1  UNL1        0.1838
     16 N          59.7097   88.0310    9.1535 N.ar    1  UNL1       -0.3249
     17 H          58.7135   85.7091    6.7523 H       1  UNL1        0.1437
     18 H          58.0204   87.2281    7.0991 H       1  UNL1        0.1437
     19 H          59.0273   88.7177    8.9743 H       1  UNL1        0.1686
     20 C          63.8901   84.6609   15.1394 C.3     1  UNL1        0.1538
     21 C          63.7457   86.0864   15.5835 C.ar    1  UNL1        0.0021
     22 C          63.0546   86.4027   16.8767 C.ar    1  UNL1       -0.0023
     23 C          62.9102   87.8281   17.3209 C.ar    1  UNL1        0.0013
     24 C          63.4569   88.9373   16.4718 C.ar    1  UNL1        0.0192
     25 C          63.3125   90.3627   16.9160 C.ar    1  UNL1        0.0988
     26 N          63.8592   91.4718   16.0669 N.ar    1  UNL1       -0.2423
     27 C          64.5503   91.1555   14.7737 C.ar    1  UNL1        0.0989
     28 C          64.6947   89.7301   14.3296 C.ar    1  UNL1        0.0207
     29 C          64.1480   88.6210   15.1786 C.ar    1  UNL1        0.0028
     30 C          64.2924   87.1955   14.7345 C.ar    1  UNL1       -0.0022
@<TRIPOS>BOND
     1     7     8    1
     2     8     9   ar
     3     9    10   ar
     4    10     6    1
     5     6     1    1
     6     1     2   ar
     7     2     3   ar
     8     3     4   ar
     9     4    20    1
    10    20    21    1
    11    21    22   ar
    12    22    23   ar
    13    23    24   ar
    14    24    25   ar
    15    25    26   ar
    16    26    27   ar
    17    27    28   ar
    18    28    29   ar
    19    29    30   ar
    20     4     5   ar
    21    10    11   ar
    22    11    12   ar
    23    12    13   ar
    24    13    14   ar
    25    14    15   ar
    26    15    16   ar
    27    16     8   ar
    28     5     1   ar
    29    15    11    1
    30    30    21   ar
    31    29    24   ar
    32     7    17    1
    33     7    18    1
    34    16    19    1
