@<TRIPOS>MOLECULE
*****
 39 42 0 0 0
SMALL
GASTEIGER

@<TRIPOS>ATOM
      1 C          60.5518   90.5996   11.7068 C.3     1  UNL1        0.0265
      2 C          61.9464   90.0480   11.6770 C.3     1  UNL1        0.1011
      3 N          63.1220   90.9784   11.7235 N.am    1  UNL1       -0.2438
      4 C          63.5875   91.6620   10.4722 C.3     1  UNL1        0.1009
      5 C          64.7631   92.5924   10.5187 C.3     1  UNL1        0.0662
      6 C          65.4733   92.8393   11.8166 C.3     1  UNL1        0.1600
      7 O          65.0079   92.1557   13.0681 O.3     1  UNL1       -0.4374
      8 C          63.8323   91.2252   13.0216 C.2     1  UNL1        0.4051
      9 O          63.3668   90.5417   14.2729 O.2     1  UNL1       -0.2262
     10 C          66.2831   93.7141   10.9061 C.ar    1  UNL1        0.0138
     11 C          66.2253   95.2058   11.0524 C.ar    1  UNL1       -0.0010
     12 C          67.0351   96.0807   10.1419 C.ar    1  UNL1       -0.0002
     13 C          67.9026   95.4637    9.0852 C.ar    1  UNL1       -0.0000
     14 C          67.9605   93.9720    8.9389 C.ar    1  UNL1       -0.0002
     15 C          67.1507   93.0971    9.8494 C.ar    1  UNL1       -0.0010
     16 C          66.4648   93.3899   12.7984 C.3     1  UNL1        0.0714
     17 C          67.1348   92.4755   13.7805 C.3     1  UNL1        0.0922
     18 C          67.7780   91.7307   12.6484 C.3     1  UNL1        0.0294
     19 C          66.4917   93.2202   14.9126 C.3     1  UNL1        0.0294
     20 O          67.8049   91.5609   14.7627 O.3     1  UNL1       -0.3866
     21 H          68.3414   90.9098   14.2841 H       1  UNL1        0.2102
     22 C          62.1653   88.5660   11.6007 C.ar    1  UNL1       -0.0042
     23 C          61.4515   87.7550   10.5603 C.ar    1  UNL1       -0.0027
     24 C          61.6704   86.2730   10.4841 C.ar    1  UNL1       -0.0002
     25 C          62.6033   85.6021   11.4482 C.ar    1  UNL1        0.0014
     26 C          63.3172   86.4132   12.4887 C.ar    1  UNL1       -0.0002
     27 C          63.0982   87.8951   12.5649 C.ar    1  UNL1       -0.0027
     28 C          62.8223   84.1201   11.3720 C.ar    1  UNL1        0.0175
     29 C          63.3152   83.4994   10.0985 C.ar    1  UNL1        0.0064
     30 C          63.5342   82.0174   10.0223 C.ar    1  UNL1        0.0608
     31 C          63.2602   81.1562   11.2194 C.ar    1  UNL1        0.2612
     32 O          63.4792   79.6742   11.1432 O.2     1  UNL1       -0.2670
     33 N          62.7672   81.7770   12.4929 N.ar    1  UNL1       -0.2859
     34 C          62.5483   83.2589   12.5691 C.ar    1  UNL1        0.0786
     35 C          62.4932   80.9158   13.6901 C.3     1  UNL1        0.2124
     36 C          61.0791   80.6237   14.0960 C.3     1  UNL1        0.4183
     37 F          59.6649   80.3315   14.5019 F       1  UNL1       -0.1679
     38 F          61.0036   81.9518   14.7890 F       1  UNL1       -0.1679
     39 F          61.1545   79.2955   13.4030 F       1  UNL1       -0.1679
@<TRIPOS>BOND
     1     2     1    1
     2     2    22    1
     3    22    23   ar
     4    23    24   ar
     5    24    25   ar
     6    25    28    1
     7    28    29   ar
     8    29    30   ar
     9    30    31   ar
    10    31    32    2
    11    31    33   ar
    12    33    35    1
    13    35    36    1
    14    36    37    1
    15    36    38    1
    16    36    39    1
    17    33    34   ar
    18    25    26   ar
    19    26    27   ar
    20     2     3    1
    21     3     4    1
    22     4     5    1
    23     5     6    1
    24     6    16    1
    25    16    17    1
    26    17    18    1
    27    17    19    1
    28    17    20    1
    29     6    10    1
    30    10    11   ar
    31    11    12   ar
    32    12    13   ar
    33    13    14   ar
    34    14    15   ar
    35     6     7    1
    36     7     8    1
    37     8     9    2
    38    27    22   ar
    39     8     3   am
    40    34    28   ar
    41    15    10   ar
    42    20    21    1
@<TRIPOS>MOLECULE
*****
 39 42 0 0 0
SMALL
GASTEIGER

@<TRIPOS>ATOM
      1 C          60.9727   90.3516   11.3183 C.3     1  UNL1        0.0265
      2 C          62.2840   89.6917   11.6263 C.3     1  UNL1        0.1011
      3 N          63.4750   90.5257   11.9951 N.am    1  UNL1       -0.2438
      4 C          64.1333   90.3440   13.3306 C.3     1  UNL1        0.1009
      5 C          65.3243   91.1780   13.6993 C.3     1  UNL1        0.0662
      6 C          65.8571   92.1936   12.7325 C.3     1  UNL1        0.1600
      7 O          65.1988   92.3753   11.3969 O.3     1  UNL1       -0.4374
      8 C          64.0077   91.5413   11.0282 C.2     1  UNL1        0.4051
      9 O          63.3494   91.7229    9.6927 O.2     1  UNL1       -0.2262
     10 C          66.8161   92.3881   13.8694 C.ar    1  UNL1        0.0138
     11 C          68.2756   92.1008   13.6769 C.ar    1  UNL1       -0.0010
     12 C          69.2347   92.2953   14.8138 C.ar    1  UNL1       -0.0002
     13 C          68.7340   92.7772   16.1431 C.ar    1  UNL1       -0.0000
     14 C          67.2744   93.0645   16.3356 C.ar    1  UNL1       -0.0002
     15 C          66.3154   92.8700   15.1987 C.ar    1  UNL1       -0.0010
     16 C          66.7229   93.2768   12.1605 C.3     1  UNL1        0.0714
     17 C          66.5842   93.6646   10.7182 C.3     1  UNL1        0.0922
     18 C          67.3925   92.4661   10.3181 C.3     1  UNL1        0.0294
     19 C          65.7759   94.8632   11.1183 C.3     1  UNL1        0.0294
     20 O          66.4455   94.0525    9.2759 O.3     1  UNL1       -0.3866
     21 H          66.9085   93.4053    8.7211 H       1  UNL1        0.2102
     22 C          62.4043   88.1977   11.5656 C.ar    1  UNL1       -0.0042
     23 C          63.1391   87.4600   12.6453 C.ar    1  UNL1       -0.0027
     24 C          63.2593   85.9661   12.5846 C.ar    1  UNL1       -0.0002
     25 C          62.6449   85.2099   11.4441 C.ar    1  UNL1        0.0014
     26 C          61.9101   85.9476   10.3644 C.ar    1  UNL1       -0.0002
     27 C          61.7898   87.4415   10.4252 C.ar    1  UNL1       -0.0027
     28 C          62.7652   83.7159   11.3834 C.ar    1  UNL1        0.0175
     29 C          63.2278   83.0515   10.1207 C.ar    1  UNL1        0.0064
     30 C          63.3481   81.5575   10.0600 C.ar    1  UNL1        0.0608
     31 C          63.0058   80.7280   11.2620 C.ar    1  UNL1        0.2612
     32 O          63.1261   79.2341   11.2014 O.2     1  UNL1       -0.2670
     33 N          62.5432   81.3926   12.5248 N.ar    1  UNL1       -0.2859
     34 C          62.4229   82.8865   12.5855 C.ar    1  UNL1        0.0786
     35 C          62.2010   80.5632   13.7268 C.3     1  UNL1        0.2124
     36 C          60.7707   80.4164   14.1542 C.3     1  UNL1        0.4183
     37 F          59.3403   80.2697   14.5817 F       1  UNL1       -0.1679
     38 F          60.7784   78.9900   13.6902 F       1  UNL1       -0.1679
     39 F          60.7630   81.8428   14.6182 F       1  UNL1       -0.1679
@<TRIPOS>BOND
     1     2     1    1
     2     2    22    1
     3    22    23   ar
     4    23    24   ar
     5    24    25   ar
     6    25    28    1
     7    28    29   ar
     8    29    30   ar
     9    30    31   ar
    10    31    32    2
    11    31    33   ar
    12    33    35    1
    13    35    36    1
    14    36    37    1
    15    36    38    1
    16    36    39    1
    17    33    34   ar
    18    25    26   ar
    19    26    27   ar
    20     2     3    1
    21     3     4    1
    22     4     5    1
    23     5     6    1
    24     6    16    1
    25    16    17    1
    26    17    18    1
    27    17    19    1
    28    17    20    1
    29     6    10    1
    30    10    11   ar
    31    11    12   ar
    32    12    13   ar
    33    13    14   ar
    34    14    15   ar
    35     6     7    1
    36     7     8    1
    37     8     9    2
    38    27    22   ar
    39     8     3   am
    40    34    28   ar
    41    15    10   ar
    42    20    21    1
@<TRIPOS>MOLECULE
*****
 39 42 0 0 0
SMALL
GASTEIGER

@<TRIPOS>ATOM
      1 C          60.7892   90.3218   11.1475 C.3     1  UNL1        0.0265
      2 C          62.1672   89.9036   11.5672 C.3     1  UNL1        0.1011
      3 N          63.2751   90.9137   11.6164 N.am    1  UNL1       -0.2438
      4 C          63.7541   91.5637   10.3523 C.3     1  UNL1        0.1009
      5 C          64.8620   92.5738   10.4015 C.3     1  UNL1        0.0662
      6 C          65.4908   92.9338   11.7149 C.3     1  UNL1        0.1600
      7 O          65.0118   92.2837   12.9790 O.3     1  UNL1       -0.4374
      8 C          63.9039   91.2737   12.9298 C.2     1  UNL1        0.4051
      9 O          63.4249   90.6237   14.1939 O.2     1  UNL1       -0.2262
     10 C          66.2839   93.8152   10.7960 C.ar    1  UNL1        0.0138
     11 C          67.1655   93.2048    9.7471 C.ar    1  UNL1       -0.0010
     12 C          67.9586   94.0862    8.8283 C.ar    1  UNL1       -0.0002
     13 C          67.8700   95.5779    8.9584 C.ar    1  UNL1       -0.0000
     14 C          66.9884   96.1883   10.0074 C.ar    1  UNL1       -0.0002
     15 C          66.1953   95.3069   10.9262 C.ar    1  UNL1       -0.0010
     16 C          66.3951   93.5999   12.7091 C.3     1  UNL1        0.0714
     17 C          67.0533   92.7887   13.7855 C.3     1  UNL1        0.0922
     18 C          66.4356   93.6718   14.8289 C.3     1  UNL1        0.0294
     19 C          67.6710   91.9055   12.7423 C.3     1  UNL1        0.0294
     20 O          67.7114   91.9775   14.8620 O.3     1  UNL1       -0.3866
     21 H          67.4766   92.3411   15.7301 H       1  UNL1        0.2102
     22 C          62.4374   88.4754   11.9376 C.ar    1  UNL1       -0.0042
     23 C          61.7010   87.3683   11.2433 C.ar    1  UNL1       -0.0027
     24 C          61.9713   85.9401   11.6138 C.ar    1  UNL1       -0.0002
     25 C          62.9778   85.6191   12.6786 C.ar    1  UNL1        0.0014
     26 C          63.7142   86.7262   13.3729 C.ar    1  UNL1       -0.0002
     27 C          63.4439   88.1543   13.0024 C.ar    1  UNL1       -0.0027
     28 C          63.2480   84.1908   13.0491 C.ar    1  UNL1        0.0175
     29 C          64.1243   83.8738   14.2245 C.ar    1  UNL1        0.0064
     30 C          64.3945   82.4456   14.5950 C.ar    1  UNL1        0.0608
     31 C          63.7884   81.3344   13.7900 C.ar    1  UNL1        0.2612
     32 O          64.0585   79.9062   14.1604 O.2     1  UNL1       -0.2670
     33 N          62.9120   81.6515   12.6146 N.ar    1  UNL1       -0.2859
     34 C          62.6419   83.0797   12.2442 C.ar    1  UNL1        0.0786
     35 C          62.3059   80.5404   11.8097 C.3     1  UNL1        0.2124
     36 C          62.9724   80.0784   10.5478 C.3     1  UNL1        0.4183
     37 F          63.6390   79.6164    9.2860 F       1  UNL1       -0.1679
     38 F          62.5033   78.6785   10.8126 F       1  UNL1       -0.1679
     39 F          63.4416   81.4783   10.2831 F       1  UNL1       -0.1679
@<TRIPOS>BOND
     1     2     1    1
     2     2    22    1
     3    22    23   ar
     4    23    24   ar
     5    24    25   ar
     6    25    28    1
     7    28    29   ar
     8    29    30   ar
     9    30    31   ar
    10    31    32    2
    11    31    33   ar
    12    33    35    1
    13    35    36    1
    14    36    37    1
    15    36    38    1
    16    36    39    1
    17    33    34   ar
    18    25    26   ar
    19    26    27   ar
    20     2     3    1
    21     3     4    1
    22     4     5    1
    23     5     6    1
    24     6    16    1
    25    16    17    1
    26    17    18    1
    27    17    19    1
    28    17    20    1
    29     6    10    1
    30    10    11   ar
    31    11    12   ar
    32    12    13   ar
    33    13    14   ar
    34    14    15   ar
    35     6     7    1
    36     7     8    1
    37     8     9    2
    38    27    22   ar
    39     8     3   am
    40    34    28   ar
    41    15    10   ar
    42    20    21    1
@<TRIPOS>MOLECULE
*****
 39 42 0 0 0
SMALL
GASTEIGER

@<TRIPOS>ATOM
      1 C          61.2432   90.2427   10.7832 C.3     1  UNL1        0.0265
      2 C          62.4252   89.6450   11.4870 C.3     1  UNL1        0.1011
      3 N          63.5847   90.5136   11.8758 N.am    1  UNL1       -0.2438
      4 C          64.2440   90.3311   13.2107 C.3     1  UNL1        0.1009
      5 C          65.4035   91.1997   13.5995 C.3     1  UNL1        0.0662
      6 C          65.9035   92.2509   12.6536 C.3     1  UNL1        0.1600
      7 O          65.2441   92.4335   11.3186 O.3     1  UNL1       -0.4374
      8 C          64.0847   91.5649   10.9298 C.2     1  UNL1        0.4051
      9 O          63.4253   91.7474    9.5949 O.2     1  UNL1       -0.2262
     10 C          66.8508   92.4585   13.7979 C.ar    1  UNL1        0.0138
     11 C          68.3169   92.1999   13.6143 C.ar    1  UNL1       -0.0010
     12 C          69.2642   92.4074   14.7586 C.ar    1  UNL1       -0.0002
     13 C          68.7454   92.8736   16.0866 C.ar    1  UNL1       -0.0000
     14 C          67.2793   93.1322   16.2703 C.ar    1  UNL1       -0.0002
     15 C          66.3320   92.9247   15.1259 C.ar    1  UNL1       -0.0010
     16 C          66.7325   93.3743   12.1050 C.3     1  UNL1        0.0714
     17 C          66.5855   93.7832   10.6694 C.3     1  UNL1        0.0922
     18 C          67.4173   92.6077   10.2493 C.3     1  UNL1        0.0294
     19 C          65.7537   94.9586   11.0894 C.3     1  UNL1        0.0294
     20 O          66.4385   94.1921    9.2337 O.3     1  UNL1       -0.3866
     21 H          66.9140   93.5636    8.6682 H       1  UNL1        0.2102
     22 C          62.4480   88.1785   11.8019 C.ar    1  UNL1       -0.0042
     23 C          61.5667   87.2340   11.0396 C.ar    1  UNL1       -0.0027
     24 C          61.5895   85.7676   11.3546 C.ar    1  UNL1       -0.0002
     25 C          62.4935   85.2459   12.4319 C.ar    1  UNL1        0.0014
     26 C          63.3747   86.1904   13.1942 C.ar    1  UNL1       -0.0002
     27 C          63.3520   87.6568   12.8792 C.ar    1  UNL1       -0.0027
     28 C          62.5162   83.7794   12.7469 C.ar    1  UNL1        0.0175
     29 C          61.9955   83.2872   14.0646 C.ar    1  UNL1        0.0064
     30 C          62.0182   81.8208   14.3796 C.ar    1  UNL1        0.0608
     31 C          62.5616   80.8466   13.3767 C.ar    1  UNL1        0.2612
     32 O          62.5844   79.3803   13.6916 O.2     1  UNL1       -0.2670
     33 N          63.0824   81.3389   12.0589 N.ar    1  UNL1       -0.2859
     34 C          63.0596   82.8053   11.7440 C.ar    1  UNL1        0.0786
     35 C          63.6258   80.3648   11.0561 C.3     1  UNL1        0.2124
     36 C          62.7387   79.8338    9.9693 C.3     1  UNL1        0.4183
     37 F          61.8515   79.3027    8.8826 F       1  UNL1       -0.1679
     38 F          62.7585   81.1749    9.2978 F       1  UNL1       -0.1679
     39 F          62.7189   78.4926   10.6408 F       1  UNL1       -0.1679
@<TRIPOS>BOND
     1     2     1    1
     2     2    22    1
     3    22    23   ar
     4    23    24   ar
     5    24    25   ar
     6    25    28    1
     7    28    29   ar
     8    29    30   ar
     9    30    31   ar
    10    31    32    2
    11    31    33   ar
    12    33    35    1
    13    35    36    1
    14    36    37    1
    15    36    38    1
    16    36    39    1
    17    33    34   ar
    18    25    26   ar
    19    26    27   ar
    20     2     3    1
    21     3     4    1
    22     4     5    1
    23     5     6    1
    24     6    16    1
    25    16    17    1
    26    17    18    1
    27    17    19    1
    28    17    20    1
    29     6    10    1
    30    10    11   ar
    31    11    12   ar
    32    12    13   ar
    33    13    14   ar
    34    14    15   ar
    35     6     7    1
    36     7     8    1
    37     8     9    2
    38    27    22   ar
    39     8     3   am
    40    34    28   ar
    41    15    10   ar
    42    20    21    1
