@<TRIPOS>MOLECULE
*****
 29 32 0 0 0
SMALL
GASTEIGER

@<TRIPOS>ATOM
      1 N          59.7728   88.5492   10.6454 N.pl3   1  UNL1       -0.3039
      2 H          58.8265   88.3842   10.8611 H       1  UNL1        0.1496
      3 C          60.3101   87.5204    7.8790 C.3     1  UNL1        0.1363
      4 N          60.9771   86.8799    9.0601 N.ar    1  UNL1       -0.2669
      5 C          60.7085   87.3943   10.4433 C.ar    1  UNL1        0.2002
      6 N          61.3755   86.7539   11.6244 N.ar    1  UNL1       -0.2150
      7 C          62.3112   85.5990   11.4223 C.ar    1  UNL1        0.0895
      8 C          62.9782   84.9586   12.6033 C.ar    1  UNL1        0.0307
      9 C          63.9138   83.8038   12.4012 C.ar    1  UNL1        0.0592
     10 CL         64.5809   83.1633   13.5823 Cl      1  UNL1       -0.0822
     11 C          64.1824   83.2894   11.0180 C.ar    1  UNL1        0.0116
     12 C          63.5154   83.9298    9.8370 C.ar    1  UNL1        0.0071
     13 C          62.5798   85.0846   10.0391 C.ar    1  UNL1        0.0740
     14 C          61.9128   85.7251    8.8580 C.ar    1  UNL1        0.2643
     15 O          62.1814   85.2107    7.4748 O.2     1  UNL1       -0.2668
     16 C          60.2789   89.9556   10.5189 C.3     1  UNL1        0.0942
     17 C          61.6779   90.2090   10.0410 C.3     1  UNL1        0.0476
     18 C          62.7379   90.6323   11.0143 C.ar    1  UNL1       -0.0205
     19 C          63.7936   91.6117   10.5945 C.ar    1  UNL1       -0.0042
     20 C          64.8535   92.0351   11.5677 C.ar    1  UNL1        0.0012
     21 C          64.8578   91.4790   12.9608 C.ar    1  UNL1        0.0176
     22 C          63.8021   90.4995   13.3806 C.ar    1  UNL1        0.0012
     23 C          62.7422   90.0762   12.4074 C.ar    1  UNL1       -0.0042
     24 C          65.9178   91.9023   13.9341 C.ar    1  UNL1        0.0813
     25 C          67.3565   91.9315   13.5105 C.ar    1  UNL1        0.0191
     26 C          68.4164   92.3548   14.4837 C.ar    1  UNL1        0.0031
     27 C          68.0378   92.7489   15.8807 C.ar    1  UNL1        0.0207
     28 C          66.5992   92.7197   16.3043 C.ar    1  UNL1        0.0988
     29 N          65.5392   92.2963   15.3310 N.ar    1  UNL1       -0.2438
@<TRIPOS>BOND
     1     3     4    1
     2     4     5   ar
     3     5     1    1
     4     1    16    1
     5    16    17    1
     6    17    18    1
     7    18    19   ar
     8    19    20   ar
     9    20    21   ar
    10    21    24    1
    11    24    25   ar
    12    25    26   ar
    13    26    27   ar
    14    27    28   ar
    15    28    29   ar
    16    21    22   ar
    17    22    23   ar
    18     5     6   ar
    19     6     7   ar
    20     7     8   ar
    21     8     9   ar
    22     9    10    1
    23     9    11   ar
    24    11    12   ar
    25    12    13   ar
    26    13    14   ar
    27    14    15    2
    28    14     4   ar
    29    23    18   ar
    30    13     7   ar
    31    29    24   ar
    32     1     2    1
@<TRIPOS>MOLECULE
*****
 29 32 0 0 0
SMALL
GASTEIGER

@<TRIPOS>ATOM
      1 N          64.3411   87.9380   14.4786 N.pl3   1  UNL1       -0.3039
      2 H          65.3010   87.7406   14.5726 H       1  UNL1        0.1496
      3 C          64.1367   84.9682   14.1061 C.3     1  UNL1        0.1363
      4 N          63.4681   85.8939   13.1333 N.ar    1  UNL1       -0.2669
      5 C          63.5703   87.3788   13.3196 C.ar    1  UNL1        0.2002
      6 N          62.9018   88.3045   12.3469 N.ar    1  UNL1       -0.2150
      7 C          62.1311   87.7453   11.1878 C.ar    1  UNL1        0.0895
      8 C          61.4626   88.6709   10.2151 C.ar    1  UNL1        0.0307
      9 C          60.6919   88.1118    9.0561 C.ar    1  UNL1        0.0592
     10 CL         60.0234   89.0374    8.0833 Cl      1  UNL1       -0.0822
     11 C          60.5897   86.6269    8.8698 C.ar    1  UNL1        0.0116
     12 C          61.2582   85.7012    9.8425 C.ar    1  UNL1        0.0071
     13 C          62.0289   86.2604   11.0015 C.ar    1  UNL1        0.0740
     14 C          62.6975   85.3347   11.9743 C.ar    1  UNL1        0.2643
     15 O          62.5953   83.8498   11.7880 O.2     1  UNL1       -0.2668
     16 C          63.6492   88.7978   15.4945 C.3     1  UNL1        0.0942
     17 C          63.9997   90.2516   15.6100 C.3     1  UNL1        0.0476
     18 C          64.6917   90.9487   14.4763 C.ar    1  UNL1       -0.0205
     19 C          63.9471   91.2361   13.2062 C.ar    1  UNL1       -0.0042
     20 C          64.6390   91.9331   12.0725 C.ar    1  UNL1        0.0012
     21 C          66.0755   92.3428   12.2088 C.ar    1  UNL1        0.0176
     22 C          66.8201   92.0554   13.4789 C.ar    1  UNL1        0.0012
     23 C          66.1282   91.3584   14.6126 C.ar    1  UNL1       -0.0042
     24 C          66.7675   93.0399   11.0751 C.ar    1  UNL1        0.0813
     25 C          67.6035   92.2533   10.1094 C.ar    1  UNL1        0.0191
     26 C          68.2954   92.9503    8.9757 C.ar    1  UNL1        0.0031
     27 C          68.1515   94.4340    8.8076 C.ar    1  UNL1        0.0207
     28 C          67.3155   95.2205    9.7733 C.ar    1  UNL1        0.0988
     29 N          66.6235   94.5234   10.9071 N.ar    1  UNL1       -0.2438
@<TRIPOS>BOND
     1     3     4    1
     2     4     5   ar
     3     5     1    1
     4     1    16    1
     5    16    17    1
     6    17    18    1
     7    18    19   ar
     8    19    20   ar
     9    20    21   ar
    10    21    24    1
    11    24    25   ar
    12    25    26   ar
    13    26    27   ar
    14    27    28   ar
    15    28    29   ar
    16    21    22   ar
    17    22    23   ar
    18     5     6   ar
    19     6     7   ar
    20     7     8   ar
    21     8     9   ar
    22     9    10    1
    23     9    11   ar
    24    11    12   ar
    25    12    13   ar
    26    13    14   ar
    27    14    15    2
    28    14     4   ar
    29    23    18   ar
    30    13     7   ar
    31    29    24   ar
    32     1     2    1
@<TRIPOS>MOLECULE
*****
 29 32 0 0 0
SMALL
GASTEIGER

@<TRIPOS>ATOM
      1 N          62.6774   83.7280   15.1473 N.pl3   1  UNL1       -0.3039
      2 H          63.0325   82.8944   15.5323 H       1  UNL1        0.1496
      3 C          64.3284   81.9007   13.4341 C.3     1  UNL1        0.1363
      4 N          63.6161   83.0674   12.8165 N.ar    1  UNL1       -0.2669
      5 C          62.7907   83.9811   13.6731 C.ar    1  UNL1        0.2002
      6 N          62.0784   85.1479   13.0556 N.ar    1  UNL1       -0.2150
      7 C          62.1916   85.4010   11.5814 C.ar    1  UNL1        0.0895
      8 C          61.4794   86.5677   10.9638 C.ar    1  UNL1        0.0307
      9 C          61.5926   86.8208    9.4897 C.ar    1  UNL1        0.0592
     10 CL         60.8804   87.9875    8.8721 Cl      1  UNL1       -0.0822
     11 C          62.4181   85.9071    8.6331 C.ar    1  UNL1        0.0116
     12 C          63.1304   84.7403    9.2506 C.ar    1  UNL1        0.0071
     13 C          63.0171   84.4873   10.7248 C.ar    1  UNL1        0.0740
     14 C          63.7294   83.3205   11.3424 C.ar    1  UNL1        0.2643
     15 O          64.5549   82.4068   10.4858 O.2     1  UNL1       -0.2668
     16 C          62.0232   84.7450   16.0348 C.3     1  UNL1        0.0942
     17 C          62.8651   85.6888   16.8413 C.3     1  UNL1        0.0476
     18 C          63.3778   86.9543   16.2201 C.ar    1  UNL1       -0.0205
     19 C          64.2681   86.8908   15.0146 C.ar    1  UNL1       -0.0042
     20 C          64.7808   88.1562   14.3934 C.ar    1  UNL1        0.0012
     21 C          64.4032   89.4851   14.9777 C.ar    1  UNL1        0.0176
     22 C          63.5128   89.5485   16.1832 C.ar    1  UNL1        0.0012
     23 C          63.0001   88.2832   16.8044 C.ar    1  UNL1       -0.0042
     24 C          64.9159   90.7505   14.3565 C.ar    1  UNL1        0.0813
     25 C          64.5468   91.0958   12.9442 C.ar    1  UNL1        0.0191
     26 C          65.0594   92.3612   12.3230 C.ar    1  UNL1        0.0031
     27 C          65.9413   93.2814   13.1141 C.ar    1  UNL1        0.0207
     28 C          66.3104   92.9361   14.5264 C.ar    1  UNL1        0.0988
     29 N          65.7977   91.6706   15.1476 N.ar    1  UNL1       -0.2438
@<TRIPOS>BOND
     1     3     4    1
     2     4     5   ar
     3     5     1    1
     4     1    16    1
     5    16    17    1
     6    17    18    1
     7    18    19   ar
     8    19    20   ar
     9    20    21   ar
    10    21    24    1
    11    24    25   ar
    12    25    26   ar
    13    26    27   ar
    14    27    28   ar
    15    28    29   ar
    16    21    22   ar
    17    22    23   ar
    18     5     6   ar
    19     6     7   ar
    20     7     8   ar
    21     8     9   ar
    22     9    10    1
    23     9    11   ar
    24    11    12   ar
    25    12    13   ar
    26    13    14   ar
    27    14    15    2
    28    14     4   ar
    29    23    18   ar
    30    13     7   ar
    31    29    24   ar
    32     1     2    1
@<TRIPOS>MOLECULE
*****
 29 32 0 0 0
SMALL
GASTEIGER

@<TRIPOS>ATOM
      1 N          59.9311   88.0386   11.5085 N.pl3   1  UNL1       -0.3039
      2 H          58.9625   87.8662   11.5432 H       1  UNL1        0.1496
      3 C          60.5427   87.7533    8.5854 C.3     1  UNL1        0.1363
      4 N          61.1735   86.8222    9.5780 N.ar    1  UNL1       -0.2669
      5 C          60.8677   86.9649   11.0395 C.ar    1  UNL1        0.2002
      6 N          61.4985   86.0339   12.0321 N.ar    1  UNL1       -0.2150
      7 C          62.4352   84.9601   11.5632 C.ar    1  UNL1        0.0895
      8 C          63.0659   84.0291   12.5558 C.ar    1  UNL1        0.0307
      9 C          64.0025   82.9554   12.0868 C.ar    1  UNL1        0.0592
     10 CL         64.6334   82.0243   13.0794 Cl      1  UNL1       -0.0822
     11 C          64.3083   82.8127   10.6252 C.ar    1  UNL1        0.0116
     12 C          63.6775   83.7437    9.6326 C.ar    1  UNL1        0.0071
     13 C          62.7409   84.8174   10.1016 C.ar    1  UNL1        0.0740
     14 C          62.1101   85.7485    9.1090 C.ar    1  UNL1        0.2643
     15 O          62.4158   85.6058    7.6474 O.2     1  UNL1       -0.2668
     16 C          60.4704   89.3751   11.9244 C.3     1  UNL1        0.0942
     17 C          61.8163   89.4698   12.5797 C.3     1  UNL1        0.0476
     18 C          62.8483   90.4154   12.0403 C.ar    1  UNL1       -0.0205
     19 C          62.8015   90.8351   10.6009 C.ar    1  UNL1       -0.0042
     20 C          63.8334   91.7806   10.0615 C.ar    1  UNL1        0.0012
     21 C          64.9121   92.3064   10.9613 C.ar    1  UNL1        0.0176
     22 C          64.9589   91.8867   12.4007 C.ar    1  UNL1        0.0012
     23 C          63.9270   90.9412   12.9401 C.ar    1  UNL1       -0.0042
     24 C          65.9441   93.2520   10.4219 C.ar    1  UNL1        0.0813
     25 C          67.2257   92.7188    9.8534 C.ar    1  UNL1        0.0191
     26 C          68.2577   93.6643    9.3140 C.ar    1  UNL1        0.0031
     27 C          68.0081   95.1431    9.3430 C.ar    1  UNL1        0.0207
     28 C          66.7265   95.6764    9.9114 C.ar    1  UNL1        0.0988
     29 N          65.6945   94.7308   10.4509 N.ar    1  UNL1       -0.2438
@<TRIPOS>BOND
     1     3     4    1
     2     4     5   ar
     3     5     1    1
     4     1    16    1
     5    16    17    1
     6    17    18    1
     7    18    19   ar
     8    19    20   ar
     9    20    21   ar
    10    21    24    1
    11    24    25   ar
    12    25    26   ar
    13    26    27   ar
    14    27    28   ar
    15    28    29   ar
    16    21    22   ar
    17    22    23   ar
    18     5     6   ar
    19     6     7   ar
    20     7     8   ar
    21     8     9   ar
    22     9    10    1
    23     9    11   ar
    24    11    12   ar
    25    12    13   ar
    26    13    14   ar
    27    14    15    2
    28    14     4   ar
    29    23    18   ar
    30    13     7   ar
    31    29    24   ar
    32     1     2    1
@<TRIPOS>MOLECULE
*****
 29 32 0 0 0
SMALL
GASTEIGER

@<TRIPOS>ATOM
      1 N          61.5661   87.3077    9.4428 N.pl3   1  UNL1       -0.3039
      2 H          61.5012   87.2507    8.4621 H       1  UNL1        0.1496
      3 C          63.0554   85.1264    8.0202 C.3     1  UNL1        0.1363
      4 N          62.9007   85.0796    9.5115 N.ar    1  UNL1       -0.2669
      5 C          62.1560   86.1703   10.2228 C.ar    1  UNL1        0.2002
      6 N          62.0013   86.1236   11.7141 N.ar    1  UNL1       -0.2150
      7 C          62.5912   84.9862   12.4941 C.ar    1  UNL1        0.0895
      8 C          62.4365   84.9395   13.9853 C.ar    1  UNL1        0.0307
      9 C          63.0264   83.8022   14.7653 C.ar    1  UNL1        0.0592
     10 CL         62.8717   83.7554   16.2566 Cl      1  UNL1       -0.0822
     11 C          63.7711   82.7115   14.0540 C.ar    1  UNL1        0.0116
     12 C          63.9258   82.7582   12.5627 C.ar    1  UNL1        0.0071
     13 C          63.3359   83.8955   11.7828 C.ar    1  UNL1        0.0740
     14 C          63.4906   83.9423   10.2915 C.ar    1  UNL1        0.2643
     15 O          64.2352   82.8516    9.5802 O.2     1  UNL1       -0.2668
     16 C          61.0751   88.5320   10.1570 C.3     1  UNL1        0.0942
     17 C          61.7604   89.8493    9.9451 C.3     1  UNL1        0.0476
     18 C          62.7709   90.3377   10.9404 C.ar    1  UNL1       -0.0205
     19 C          62.8775   89.6810   12.2848 C.ar    1  UNL1       -0.0042
     20 C          63.8879   90.1694   13.2800 C.ar    1  UNL1        0.0012
     21 C          64.7916   91.3145   12.9309 C.ar    1  UNL1        0.0176
     22 C          64.6850   91.9712   11.5865 C.ar    1  UNL1        0.0012
     23 C          63.6747   91.4828   10.5912 C.ar    1  UNL1       -0.0042
     24 C          65.8021   91.8029   13.9262 C.ar    1  UNL1        0.0813
     25 C          67.2520   91.8760   13.5487 C.ar    1  UNL1        0.0191
     26 C          68.2624   92.3644   14.5439 C.ar    1  UNL1        0.0031
     27 C          67.8229   92.7798   15.9167 C.ar    1  UNL1        0.0207
     28 C          66.3730   92.7067   16.2941 C.ar    1  UNL1        0.0988
     29 N          65.3626   92.2183   15.2989 N.ar    1  UNL1       -0.2438
@<TRIPOS>BOND
     1     3     4    1
     2     4     5   ar
     3     5     1    1
     4     1    16    1
     5    16    17    1
     6    17    18    1
     7    18    19   ar
     8    19    20   ar
     9    20    21   ar
    10    21    24    1
    11    24    25   ar
    12    25    26   ar
    13    26    27   ar
    14    27    28   ar
    15    28    29   ar
    16    21    22   ar
    17    22    23   ar
    18     5     6   ar
    19     6     7   ar
    20     7     8   ar
    21     8     9   ar
    22     9    10    1
    23     9    11   ar
    24    11    12   ar
    25    12    13   ar
    26    13    14   ar
    27    14    15    2
    28    14     4   ar
    29    23    18   ar
    30    13     7   ar
    31    29    24   ar
    32     1     2    1
@<TRIPOS>MOLECULE
*****
 29 32 0 0 0
SMALL
GASTEIGER

@<TRIPOS>ATOM
      1 N          61.6478   87.2876    9.2319 N.pl3   1  UNL1       -0.3039
      2 H          62.1828   87.6509    8.4896 H       1  UNL1        0.1496
      3 C          63.2232   85.0693    7.9681 C.3     1  UNL1        0.1363
      4 N          62.9858   85.0711    9.4492 N.ar    1  UNL1       -0.2669
      5 C          62.1981   86.1802   10.0811 C.ar    1  UNL1        0.2002
      6 N          61.9606   86.1821   11.5622 N.ar    1  UNL1       -0.2150
      7 C          62.5108   85.0747   12.4114 C.ar    1  UNL1        0.0895
      8 C          62.2733   85.0765   13.8924 C.ar    1  UNL1        0.0307
      9 C          62.8235   83.9692   14.7415 C.ar    1  UNL1        0.0592
     10 CL         62.5860   83.9710   16.2227 Cl      1  UNL1       -0.0822
     11 C          63.6112   82.8600   14.1096 C.ar    1  UNL1        0.0116
     12 C          63.8487   82.8582   12.6286 C.ar    1  UNL1        0.0071
     13 C          63.2985   83.9655   11.7794 C.ar    1  UNL1        0.0740
     14 C          63.5360   83.9638   10.2983 C.ar    1  UNL1        0.2643
     15 O          64.3237   82.8546    9.6664 O.2     1  UNL1       -0.2668
     16 C          60.2826   87.8414    9.5138 C.3     1  UNL1        0.0942
     17 C          60.1382   89.1665   10.2015 C.3     1  UNL1        0.0476
     18 C          61.3158   89.7831   10.8967 C.ar    1  UNL1       -0.0205
     19 C          62.3108   90.5886   10.1150 C.ar    1  UNL1       -0.0042
     20 C          63.4884   91.2052   10.8100 C.ar    1  UNL1        0.0012
     21 C          63.6709   91.0162   12.2868 C.ar    1  UNL1        0.0176
     22 C          62.6759   90.2107   13.0685 C.ar    1  UNL1        0.0012
     23 C          61.4984   89.5941   12.3735 C.ar    1  UNL1       -0.0042
     24 C          64.8486   91.6328   12.9819 C.ar    1  UNL1        0.0813
     25 C          65.5053   90.9155   14.1239 C.ar    1  UNL1        0.0191
     26 C          66.6829   91.5320   14.8190 C.ar    1  UNL1        0.0031
     27 C          67.2037   92.8659   14.3722 C.ar    1  UNL1        0.0207
     28 C          66.5470   93.5832   13.2302 C.ar    1  UNL1        0.0988
     29 N          65.3693   92.9666   12.5351 N.ar    1  UNL1       -0.2438
@<TRIPOS>BOND
     1     3     4    1
     2     4     5   ar
     3     5     1    1
     4     1    16    1
     5    16    17    1
     6    17    18    1
     7    18    19   ar
     8    19    20   ar
     9    20    21   ar
    10    21    24    1
    11    24    25   ar
    12    25    26   ar
    13    26    27   ar
    14    27    28   ar
    15    28    29   ar
    16    21    22   ar
    17    22    23   ar
    18     5     6   ar
    19     6     7   ar
    20     7     8   ar
    21     8     9   ar
    22     9    10    1
    23     9    11   ar
    24    11    12   ar
    25    12    13   ar
    26    13    14   ar
    27    14    15    2
    28    14     4   ar
    29    23    18   ar
    30    13     7   ar
    31    29    24   ar
    32     1     2    1
@<TRIPOS>MOLECULE
*****
 29 32 0 0 0
SMALL
GASTEIGER

@<TRIPOS>ATOM
      1 N          64.6195   87.9166   14.8947 N.pl3   1  UNL1       -0.3039
      2 H          65.5756   88.0381   15.0956 H       1  UNL1        0.1496
      3 C          63.2262   86.5434   17.1691 C.3     1  UNL1        0.1363
      4 N          63.3649   85.8500   15.8462 N.ar    1  UNL1       -0.2669
      5 C          64.0616   86.5366   14.7090 C.ar    1  UNL1        0.2002
      6 N          64.2003   85.8433   13.3861 N.ar    1  UNL1       -0.2150
      7 C          63.6424   84.4633   13.2004 C.ar    1  UNL1        0.0895
      8 C          63.7811   83.7699   11.8776 C.ar    1  UNL1        0.0307
      9 C          63.2232   82.3900   11.6919 C.ar    1  UNL1        0.0592
     10 CL         63.3619   81.6966   10.3690 Cl      1  UNL1       -0.0822
     11 C          62.5266   81.7034   12.8291 C.ar    1  UNL1        0.0116
     12 C          62.3878   82.3968   14.1520 C.ar    1  UNL1        0.0071
     13 C          62.9457   83.7767   14.3376 C.ar    1  UNL1        0.0740
     14 C          62.8070   84.4701   15.6606 C.ar    1  UNL1        0.2643
     15 O          62.1104   83.7835   16.7978 O.2     1  UNL1       -0.2668
     16 C          63.7207   89.1114   14.7743 C.3     1  UNL1        0.0942
     17 C          63.2152   89.5369   13.4277 C.3     1  UNL1        0.0476
     18 C          63.9113   90.6337   12.6775 C.ar    1  UNL1       -0.0205
     19 C          65.0078   91.4154   13.3382 C.ar    1  UNL1       -0.0042
     20 C          65.7039   92.5121   12.5880 C.ar    1  UNL1        0.0012
     21 C          65.3034   92.8270   11.1772 C.ar    1  UNL1        0.0176
     22 C          64.2069   92.0453   10.5166 C.ar    1  UNL1        0.0012
     23 C          63.5108   90.9486   11.2667 C.ar    1  UNL1       -0.0042
     24 C          65.9995   93.9238   10.4270 C.ar    1  UNL1        0.0813
     25 C          67.2565   93.6294    9.6634 C.ar    1  UNL1        0.0191
     26 C          67.9526   94.7260    8.9132 C.ar    1  UNL1        0.0031
     27 C          67.3916   96.1172    8.9267 C.ar    1  UNL1        0.0207
     28 C          66.1346   96.4116    9.6904 C.ar    1  UNL1        0.0988
     29 N          65.4385   95.3148   10.4406 N.ar    1  UNL1       -0.2438
@<TRIPOS>BOND
     1     3     4    1
     2     4     5   ar
     3     5     1    1
     4     1    16    1
     5    16    17    1
     6    17    18    1
     7    18    19   ar
     8    19    20   ar
     9    20    21   ar
    10    21    24    1
    11    24    25   ar
    12    25    26   ar
    13    26    27   ar
    14    27    28   ar
    15    28    29   ar
    16    21    22   ar
    17    22    23   ar
    18     5     6   ar
    19     6     7   ar
    20     7     8   ar
    21     8     9   ar
    22     9    10    1
    23     9    11   ar
    24    11    12   ar
    25    12    13   ar
    26    13    14   ar
    27    14    15    2
    28    14     4   ar
    29    23    18   ar
    30    13     7   ar
    31    29    24   ar
    32     1     2    1
@<TRIPOS>MOLECULE
*****
 29 32 0 0 0
SMALL
GASTEIGER

@<TRIPOS>ATOM
      1 N          63.7706   87.2521   15.0141 N.pl3   1  UNL1       -0.3039
      2 H          63.3524   87.2858   15.9047 H       1  UNL1        0.1496
      3 C          63.0762   87.7873   12.1450 C.3     1  UNL1        0.1363
      4 N          63.1261   86.3772   12.6541 N.ar    1  UNL1       -0.2669
      5 C          63.4733   86.1096   14.0886 C.ar    1  UNL1        0.2002
      6 N          63.5231   84.6995   14.5978 N.ar    1  UNL1       -0.2150
      7 C          63.2258   83.5570   13.6723 C.ar    1  UNL1        0.0895
      8 C          63.2757   82.1470   14.1815 C.ar    1  UNL1        0.0307
      9 C          62.9783   81.0046   13.2560 C.ar    1  UNL1        0.0592
     10 CL         63.0282   79.5944   13.7651 Cl      1  UNL1       -0.0822
     11 C          62.6312   81.2722   11.8215 C.ar    1  UNL1        0.0116
     12 C          62.5813   82.6822   11.3124 C.ar    1  UNL1        0.0071
     13 C          62.8786   83.8246   12.2378 C.ar    1  UNL1        0.0740
     14 C          62.8288   85.2348   11.7287 C.ar    1  UNL1        0.2643
     15 O          62.4816   85.5024   10.2942 O.2     1  UNL1       -0.2668
     16 C          64.7049   88.3433   14.5824 C.3     1  UNL1        0.0942
     17 C          64.3420   89.7791   14.8204 C.3     1  UNL1        0.0476
     18 C          64.8641   90.8464   13.9047 C.ar    1  UNL1       -0.0205
     19 C          66.0970   91.6158   14.2760 C.ar    1  UNL1       -0.0042
     20 C          66.6191   92.6831   13.3605 C.ar    1  UNL1        0.0012
     21 C          65.9084   92.9808   12.0736 C.ar    1  UNL1        0.0176
     22 C          64.6755   92.2113   11.7023 C.ar    1  UNL1        0.0012
     23 C          64.1534   91.1441   12.6179 C.ar    1  UNL1       -0.0042
     24 C          66.4305   94.0481   11.1579 C.ar    1  UNL1        0.0813
     25 C          66.0327   95.4788   11.3700 C.ar    1  UNL1        0.0191
     26 C          66.5548   96.5460   10.4544 C.ar    1  UNL1        0.0031
     27 C          67.4747   96.1826    9.3267 C.ar    1  UNL1        0.0207
     28 C          67.8726   94.7520    9.1146 C.ar    1  UNL1        0.0988
     29 N          67.3505   93.6847   10.0303 N.ar    1  UNL1       -0.2438
@<TRIPOS>BOND
     1     3     4    1
     2     4     5   ar
     3     5     1    1
     4     1    16    1
     5    16    17    1
     6    17    18    1
     7    18    19   ar
     8    19    20   ar
     9    20    21   ar
    10    21    24    1
    11    24    25   ar
    12    25    26   ar
    13    26    27   ar
    14    27    28   ar
    15    28    29   ar
    16    21    22   ar
    17    22    23   ar
    18     5     6   ar
    19     6     7   ar
    20     7     8   ar
    21     8     9   ar
    22     9    10    1
    23     9    11   ar
    24    11    12   ar
    25    12    13   ar
    26    13    14   ar
    27    14    15    2
    28    14     4   ar
    29    23    18   ar
    30    13     7   ar
    31    29    24   ar
    32     1     2    1
@<TRIPOS>MOLECULE
*****
 29 32 0 0 0
SMALL
GASTEIGER

@<TRIPOS>ATOM
      1 N          58.8998   89.1961    7.1977 N.pl3   1  UNL1       -0.3039
      2 H          57.9277   89.1377    7.3423 H       1  UNL1        0.1496
      3 C          59.4719   86.3075    7.7713 C.3     1  UNL1        0.1363
      4 N          60.1319   87.3792    8.5874 N.ar    1  UNL1       -0.2669
      5 C          59.8458   88.8235    8.3006 C.ar    1  UNL1        0.2002
      6 N          60.5058   89.8952    9.1166 N.ar    1  UNL1       -0.2150
      7 C          61.4518   89.5226   10.2195 C.ar    1  UNL1        0.0895
      8 C          62.1118   90.5943   11.0355 C.ar    1  UNL1        0.0307
      9 C          63.0578   90.2217   12.1383 C.ar    1  UNL1        0.0592
     10 CL         63.7178   91.2934   12.9544 Cl      1  UNL1       -0.0822
     11 C          63.3438   88.7774   12.4252 C.ar    1  UNL1        0.0116
     12 C          62.6838   87.7057   11.6091 C.ar    1  UNL1        0.0071
     13 C          61.7379   88.0783   10.5063 C.ar    1  UNL1        0.0740
     14 C          61.0778   87.0066    9.6902 C.ar    1  UNL1        0.2643
     15 O          61.3639   85.5623    9.9771 O.2     1  UNL1       -0.2668
     16 C          59.4349   89.6575    5.8746 C.3     1  UNL1        0.0942
     17 C          59.2066   91.0701    5.4248 C.3     1  UNL1        0.0476
     18 C          60.0893   91.6742    4.3731 C.ar    1  UNL1       -0.0205
     19 C          59.5409   92.7121    3.4393 C.ar    1  UNL1       -0.0042
     20 C          60.4235   93.3163    2.3876 C.ar    1  UNL1        0.0012
     21 C          61.8545   92.8825    2.2698 C.ar    1  UNL1        0.0176
     22 C          62.4029   91.8445    3.2035 C.ar    1  UNL1        0.0012
     23 C          61.5203   91.2404    4.2552 C.ar    1  UNL1       -0.0042
     24 C          62.7372   93.4866    1.2181 C.ar    1  UNL1        0.0813
     25 C          64.2071   93.6438    1.4723 C.ar    1  UNL1        0.0191
     26 C          65.0898   94.2478    0.4207 C.ar    1  UNL1        0.0031
     27 C          64.5025   94.6948   -0.8852 C.ar    1  UNL1        0.0207
     28 C          63.0326   94.5376   -1.1395 C.ar    1  UNL1        0.0988
     29 N          62.1500   93.9335   -0.0878 N.ar    1  UNL1       -0.2438
@<TRIPOS>BOND
     1     3     4    1
     2     4     5   ar
     3     5     1    1
     4     1    16    1
     5    16    17    1
     6    17    18    1
     7    18    19   ar
     8    19    20   ar
     9    20    21   ar
    10    21    24    1
    11    24    25   ar
    12    25    26   ar
    13    26    27   ar
    14    27    28   ar
    15    28    29   ar
    16    21    22   ar
    17    22    23   ar
    18     5     6   ar
    19     6     7   ar
    20     7     8   ar
    21     8     9   ar
    22     9    10    1
    23     9    11   ar
    24    11    12   ar
    25    12    13   ar
    26    13    14   ar
    27    14    15    2
    28    14     4   ar
    29    23    18   ar
    30    13     7   ar
    31    29    24   ar
    32     1     2    1
