@<TRIPOS>MOLECULE
*****
 29 32 0 0 0
SMALL
GASTEIGER

@<TRIPOS>ATOM
      1 O          62.9692   91.3534   16.8142 O.2     1  UNL1       -0.2719
      2 C          63.6719   90.5704   15.7450 C.2     1  UNL1        0.2569
      3 N          63.7265   89.0735   15.8249 N.am    1  UNL1       -0.2772
      4 C          63.0786   88.3597   16.9740 C.3     1  UNL1        0.0952
      5 C          63.1332   86.8627   17.0539 C.3     1  UNL1        0.0410
      6 C          63.8358   86.0797   15.9847 C.3     1  UNL1        0.0722
      7 C          64.4838   86.7937   14.8356 C.3     1  UNL1        0.0410
      8 C          64.4291   88.2905   14.7556 C.3     1  UNL1        0.0952
      9 C          64.3198   91.2842   14.5958 C.3     1  UNL1        0.2096
     10 O          63.5524   91.5159   13.3280 O.3     1  UNL1       -0.3719
     11 H          64.1133   91.9868   12.6920 H       1  UNL1        0.2114
     12 C          65.7352   91.7664   14.7144 C.ar    1  UNL1        0.0139
     13 C          66.1598   92.5579   15.9158 C.ar    1  UNL1       -0.0014
     14 C          67.5752   93.0400   16.0344 C.ar    1  UNL1        0.0006
     15 C          68.5661   92.7307   14.9516 C.ar    1  UNL1        0.0114
     16 C          68.1417   91.9392   13.7502 C.ar    1  UNL1        0.0574
     17 CL         69.1326   91.6299   12.6675 Cl      1  UNL1       -0.0823
     18 C          66.7261   91.4571   13.6317 C.ar    1  UNL1        0.0099
     19 N          63.8905   84.5828   16.0647 N.pl3   1  UNL1       -0.3369
     20 H          64.1497   84.1440   16.9069 H       1  UNL1        0.1465
     21 C          63.5501   83.7546   14.8612 C.2     1  UNL1        0.0262
     22 C          62.4000   82.7932   14.9132 C.2     1  UNL1        0.0118
     23 C          62.0597   81.9650   13.7097 C.2     1  UNL1        0.0216
     24 C          62.8695   82.0983   12.4542 C.2     1  UNL1        0.1008
     25 N          62.7719   81.4196   11.1201 N.2     1  UNL1       -0.1482
     26 N          63.8617   81.9617   10.2435 N.2     1  UNL1       -0.1467
     27 C          64.6329   82.9754   11.0359 C.2     1  UNL1        0.1198
     28 C          64.0197   83.0598   12.4022 C.2     1  UNL1        0.0238
     29 C          64.3600   83.8880   13.6056 C.3     1  UNL1        0.0703
@<TRIPOS>BOND
     1     1     2    2
     2     2     9    1
     3     9    10    1
     4     9    12    1
     5    12    13   ar
     6    13    14   ar
     7    14    15   ar
     8    15    16   ar
     9    16    17    1
    10    16    18   ar
    11     2     3   am
    12     3     4    1
    13     4     5    1
    14     5     6    1
    15     6    19    1
    16    19    21    1
    17    21    22    2
    18    22    23    1
    19    23    24    2
    20    24    25    1
    21    25    26    2
    22    26    27    1
    23    27    28    2
    24    28    29    1
    25     6     7    1
    26     7     8    1
    27    18    12   ar
    28     8     3    1
    29    29    21    1
    30    28    24    1
    31    10    11    1
    32    19    20    1
@<TRIPOS>MOLECULE
*****
 29 32 0 0 0
SMALL
GASTEIGER

@<TRIPOS>ATOM
      1 O          63.4500   91.6091   16.4799 O.2     1  UNL1       -0.2719
      2 C          64.1105   90.6769   15.5080 C.2     1  UNL1        0.2569
      3 N          63.9344   89.1944   15.6528 N.am    1  UNL1       -0.2772
      4 C          63.0978   88.6441   16.7695 C.3     1  UNL1        0.0952
      5 C          62.9217   87.1614   16.9144 C.3     1  UNL1        0.0410
      6 C          63.5822   86.2292   15.9425 C.3     1  UNL1        0.0722
      7 C          64.4189   86.7796   14.8257 C.3     1  UNL1        0.0410
      8 C          64.5950   88.2621   14.6808 C.3     1  UNL1        0.0952
      9 C          64.9472   91.2272   14.3912 C.3     1  UNL1        0.2096
     10 O          66.3472   91.6926   14.6620 O.3     1  UNL1       -0.3719
     11 H          66.7452   92.0165   13.8388 H       1  UNL1        0.2114
     12 C          64.3838   91.3122   13.0036 C.ar    1  UNL1        0.0139
     13 C          65.1194   92.0732   11.9407 C.ar    1  UNL1       -0.0014
     14 C          64.5560   92.1581   10.5532 C.ar    1  UNL1        0.0006
     15 C          63.2569   91.4821   10.2284 C.ar    1  UNL1        0.0114
     16 C          62.5213   90.7210   11.2913 C.ar    1  UNL1        0.0574
     17 CL         61.2223   90.0449   10.9666 Cl      1  UNL1       -0.0823
     18 C          63.0848   90.6361   12.6789 C.ar    1  UNL1        0.0099
     19 N          63.4061   84.7466   16.0873 N.pl3   1  UNL1       -0.3369
     20 H          63.3782   84.3394   16.9832 H       1  UNL1        0.1465
     21 C          63.2725   83.8845   14.8670 C.2     1  UNL1        0.0262
     22 C          62.2893   82.7518   14.8530 C.2     1  UNL1        0.0118
     23 C          62.1558   81.8897   13.6327 C.2     1  UNL1        0.0216
     24 C          63.0054   82.1604   12.4266 C.2     1  UNL1        0.1008
     25 N          63.0948   81.4856   11.0899 N.2     1  UNL1       -0.1482
     26 N          64.1333   82.2013   10.2779 N.2     1  UNL1       -0.1467
     27 C          64.6857   83.3184   11.1127 C.2     1  UNL1        0.1198
     28 C          63.9887   83.2931   12.4407 C.2     1  UNL1        0.0238
     29 C          64.1222   84.1552   13.6609 C.3     1  UNL1        0.0703
@<TRIPOS>BOND
     1     1     2    2
     2     2     9    1
     3     9    10    1
     4     9    12    1
     5    12    13   ar
     6    13    14   ar
     7    14    15   ar
     8    15    16   ar
     9    16    17    1
    10    16    18   ar
    11     2     3   am
    12     3     4    1
    13     4     5    1
    14     5     6    1
    15     6    19    1
    16    19    21    1
    17    21    22    2
    18    22    23    1
    19    23    24    2
    20    24    25    1
    21    25    26    2
    22    26    27    1
    23    27    28    2
    24    28    29    1
    25     6     7    1
    26     7     8    1
    27    18    12   ar
    28     8     3    1
    29    29    21    1
    30    28    24    1
    31    10    11    1
    32    19    20    1
@<TRIPOS>MOLECULE
*****
 29 32 0 0 0
SMALL
GASTEIGER

@<TRIPOS>ATOM
      1 O          66.8923   91.5097   14.3067 O.2     1  UNL1       -0.2719
      2 C          65.9438   92.0067   13.2564 C.2     1  UNL1        0.2569
      3 N          64.7222   91.2080   12.9105 N.am    1  UNL1       -0.2772
      4 C          64.4491   89.9122   13.6149 C.3     1  UNL1        0.0952
      5 C          63.2274   89.1134   13.2690 C.3     1  UNL1        0.0410
      6 C          62.2789   89.6105   12.2187 C.3     1  UNL1        0.0722
      7 C          62.5521   90.9063   11.5142 C.3     1  UNL1        0.0410
      8 C          63.7737   91.7051   11.8601 C.3     1  UNL1        0.0952
      9 C          66.2169   93.3025   12.5519 C.3     1  UNL1        0.2096
     10 O          65.8054   94.6001   13.1820 O.3     1  UNL1       -0.3719
     11 H          66.0538   95.3353   12.6001 H       1  UNL1        0.2114
     12 C          66.9015   93.3008   11.2172 C.ar    1  UNL1        0.0139
     13 C          67.6304   92.0760   10.7496 C.ar    1  UNL1       -0.0014
     14 C          68.3150   92.0744    9.4150 C.ar    1  UNL1        0.0006
     15 C          68.2708   93.2976    8.5479 C.ar    1  UNL1        0.0114
     16 C          67.5419   94.5224    9.0154 C.ar    1  UNL1        0.0574
     17 CL         67.4977   95.7455    8.1482 Cl      1  UNL1       -0.0823
     18 C          66.8573   94.5240   10.3501 C.ar    1  UNL1        0.0099
     19 N          61.0573   88.8117   11.8728 N.pl3   1  UNL1       -0.3369
     20 H          60.2693   88.8372   12.4624 H       1  UNL1        0.1465
     21 C          61.0364   87.9741   10.6286 C.2     1  UNL1        0.0262
     22 C          59.8449   88.0126    9.7184 C.2     1  UNL1        0.0118
     23 C          59.8240   87.1750    8.4742 C.2     1  UNL1        0.0216
     24 C          60.9948   86.2988    8.1403 C.2     1  UNL1        0.1008
     25 N          61.2580   85.3697    6.9925 N.2     1  UNL1       -0.1482
     26 N          62.6123   84.7568    7.1934 N.2     1  UNL1       -0.1467
     27 C          63.1861   85.3072    8.4654 C.2     1  UNL1        0.1198
     28 C          62.1864   86.2602    9.0506 C.2     1  UNL1        0.0238
     29 C          62.2072   87.0979   10.2947 C.3     1  UNL1        0.0703
@<TRIPOS>BOND
     1     1     2    2
     2     2     9    1
     3     9    10    1
     4     9    12    1
     5    12    13   ar
     6    13    14   ar
     7    14    15   ar
     8    15    16   ar
     9    16    17    1
    10    16    18   ar
    11     2     3   am
    12     3     4    1
    13     4     5    1
    14     5     6    1
    15     6    19    1
    16    19    21    1
    17    21    22    2
    18    22    23    1
    19    23    24    2
    20    24    25    1
    21    25    26    2
    22    26    27    1
    23    27    28    2
    24    28    29    1
    25     6     7    1
    26     7     8    1
    27    18    12   ar
    28     8     3    1
    29    29    21    1
    30    28    24    1
    31    10    11    1
    32    19    20    1
@<TRIPOS>MOLECULE
*****
 29 32 0 0 0
SMALL
GASTEIGER

@<TRIPOS>ATOM
      1 O          62.9539   84.3812   16.8196 O.2     1  UNL1       -0.2719
      2 C          63.7277   85.0921   15.7491 C.2     1  UNL1        0.2569
      3 N          63.7563   86.5914   15.7146 N.am    1  UNL1       -0.2772
      4 C          63.0111   87.3798   16.7504 C.3     1  UNL1        0.0952
      5 C          63.0397   88.8792   16.7158 C.3     1  UNL1        0.0410
      6 C          63.8135   89.5901   15.6454 C.3     1  UNL1        0.0722
      7 C          64.5587   88.8016   14.6095 C.3     1  UNL1        0.0410
      8 C          64.5302   87.3022   14.6441 C.3     1  UNL1        0.0952
      9 C          64.4730   84.3036   14.7133 C.3     1  UNL1        0.2096
     10 O          65.9489   84.5042   14.5365 O.3     1  UNL1       -0.3719
     11 H          66.2722   83.9218   13.8314 H       1  UNL1        0.2114
     12 C          63.7423   83.3146   13.8543 C.ar    1  UNL1        0.0139
     13 C          64.1675   83.0980   12.4322 C.ar    1  UNL1       -0.0014
     14 C          63.4368   82.1090   11.5732 C.ar    1  UNL1        0.0006
     15 C          62.2807   81.3366   12.1362 C.ar    1  UNL1        0.0114
     16 C          61.8554   81.5532   13.5583 C.ar    1  UNL1        0.0574
     17 CL         60.6994   80.7808   14.1213 Cl      1  UNL1       -0.0823
     18 C          62.5862   82.5422   14.4173 C.ar    1  UNL1        0.0099
     19 N          63.8421   91.0894   15.6108 N.pl3   1  UNL1       -0.3369
     20 H          63.2947   91.6069   16.2446 H       1  UNL1        0.1465
     21 C          64.7048   91.8002   14.6105 C.2     1  UNL1        0.0262
     22 C          65.8930   92.5905   15.0722 C.2     1  UNL1        0.0118
     23 C          66.7558   93.3013   14.0718 C.2     1  UNL1        0.0216
     24 C          66.4301   93.2216   12.6098 C.2     1  UNL1        0.1008
     25 N          67.0922   93.8124   11.4004 N.2     1  UNL1       -0.1482
     26 N          66.3130   93.3871   10.1913 N.2     1  UNL1       -0.1467
     27 C          65.1694   92.5335   10.6533 C.2     1  UNL1        0.1198
     28 C          65.2418   92.4312   12.1481 C.2     1  UNL1        0.0238
     29 C          64.3791   91.7205   13.1484 C.3     1  UNL1        0.0703
@<TRIPOS>BOND
     1     1     2    2
     2     2     9    1
     3     9    10    1
     4     9    12    1
     5    12    13   ar
     6    13    14   ar
     7    14    15   ar
     8    15    16   ar
     9    16    17    1
    10    16    18   ar
    11     2     3   am
    12     3     4    1
    13     4     5    1
    14     5     6    1
    15     6    19    1
    16    19    21    1
    17    21    22    2
    18    22    23    1
    19    23    24    2
    20    24    25    1
    21    25    26    2
    22    26    27    1
    23    27    28    2
    24    28    29    1
    25     6     7    1
    26     7     8    1
    27    18    12   ar
    28     8     3    1
    29    29    21    1
    30    28    24    1
    31    10    11    1
    32    19    20    1
@<TRIPOS>MOLECULE
*****
 29 32 0 0 0
SMALL
GASTEIGER

@<TRIPOS>ATOM
      1 O          66.5676   92.0752   14.8052 O.2     1  UNL1       -0.2719
      2 C          65.8901   92.3083   13.4874 C.2     1  UNL1        0.2569
      3 N          64.8788   91.3238   12.9795 N.am    1  UNL1       -0.2772
      4 C          64.5450   90.1062   13.7894 C.3     1  UNL1        0.0952
      5 C          63.5336   89.1217   13.2814 C.3     1  UNL1        0.0410
      6 C          62.8561   89.3548   11.9636 C.3     1  UNL1        0.0722
      7 C          63.1900   90.5725   11.1537 C.3     1  UNL1        0.0410
      8 C          64.2013   91.5570   11.6616 C.3     1  UNL1        0.0952
      9 C          66.2240   93.5259   12.6775 C.3     1  UNL1        0.2096
     10 O          65.8894   94.8907   13.2022 O.3     1  UNL1       -0.3719
     11 H          66.1701   95.5616   12.5604 H       1  UNL1        0.2114
     12 C          66.8925   93.3787   11.3427 C.ar    1  UNL1        0.0139
     13 C          67.6780   92.1397   11.0298 C.ar    1  UNL1       -0.0014
     14 C          68.3464   91.9927    9.6950 C.ar    1  UNL1        0.0006
     15 C          68.2294   93.0845    8.6732 C.ar    1  UNL1        0.0114
     16 C          67.4439   94.3235    8.9861 C.ar    1  UNL1        0.0574
     17 CL         67.3269   95.4154    7.9642 Cl      1  UNL1       -0.0823
     18 C          66.7754   94.4706   10.3209 C.ar    1  UNL1        0.0099
     19 N          61.8448   88.3703   11.4557 N.pl3   1  UNL1       -0.3369
     20 H          60.8922   88.6167   11.4209 H       1  UNL1        0.1465
     21 C          62.2848   87.0103   11.0008 C.2     1  UNL1        0.0262
     22 C          62.3832   86.7050    9.5356 C.2     1  UNL1        0.0118
     23 C          62.8233   85.3450    9.0808 C.2     1  UNL1        0.0216
     24 C          63.1649   84.2904   10.0913 C.2     1  UNL1        0.1008
     25 N          63.6245   82.8702    9.9436 N.2     1  UNL1       -0.1482
     26 N          63.8101   82.2978   11.3176 N.2     1  UNL1       -0.1467
     27 C          63.4652   83.3643   12.3145 C.2     1  UNL1        0.1198
     28 C          63.0664   84.5958   11.5566 C.2     1  UNL1        0.0238
     29 C          62.6264   85.9557   12.0113 C.3     1  UNL1        0.0703
@<TRIPOS>BOND
     1     1     2    2
     2     2     9    1
     3     9    10    1
     4     9    12    1
     5    12    13   ar
     6    13    14   ar
     7    14    15   ar
     8    15    16   ar
     9    16    17    1
    10    16    18   ar
    11     2     3   am
    12     3     4    1
    13     4     5    1
    14     5     6    1
    15     6    19    1
    16    19    21    1
    17    21    22    2
    18    22    23    1
    19    23    24    2
    20    24    25    1
    21    25    26    2
    22    26    27    1
    23    27    28    2
    24    28    29    1
    25     6     7    1
    26     7     8    1
    27    18    12   ar
    28     8     3    1
    29    29    21    1
    30    28    24    1
    31    10    11    1
    32    19    20    1
@<TRIPOS>MOLECULE
*****
 29 32 0 0 0
SMALL
GASTEIGER

@<TRIPOS>ATOM
      1 O          67.1361   92.6517   14.8514 O.2     1  UNL1       -0.2719
      2 C          66.3048   92.6990   13.6037 C.2     1  UNL1        0.2569
      3 N          65.3219   91.6033   13.3154 N.am    1  UNL1       -0.2772
      4 C          65.1703   90.4602   14.2746 C.3     1  UNL1        0.0952
      5 C          64.1873   89.3644   13.9862 C.3     1  UNL1        0.0410
      6 C          63.3560   89.4118   12.7386 C.3     1  UNL1        0.0722
      7 C          63.5077   90.5550   11.7793 C.3     1  UNL1        0.0410
      8 C          64.4906   91.6507   12.0676 C.3     1  UNL1        0.0952
      9 C          66.4565   93.8422   12.6444 C.3     1  UNL1        0.2096
     10 O          66.0159   95.2194   13.0432 O.3     1  UNL1       -0.3719
     11 H          66.1828   95.8363   12.3135 H       1  UNL1        0.2114
     12 C          67.0486   93.6080   11.2863 C.ar    1  UNL1        0.0139
     13 C          67.8162   92.3493   11.0095 C.ar    1  UNL1       -0.0014
     14 C          68.4083   92.1153    9.6514 C.ar    1  UNL1        0.0006
     15 C          68.2330   93.1399    8.5700 C.ar    1  UNL1        0.0114
     16 C          67.4654   94.3986    8.8467 C.ar    1  UNL1        0.0574
     17 CL         67.2901   95.4232    7.7653 Cl      1  UNL1       -0.0823
     18 C          66.8733   94.6326   10.2049 C.ar    1  UNL1        0.0099
     19 N          62.3731   88.3160   12.4502 N.pl3   1  UNL1       -0.3369
     20 H          62.2722   87.5667   13.0807 H       1  UNL1        0.1465
     21 C          61.5438   88.3620   11.2011 C.2     1  UNL1        0.0262
     22 C          60.9002   89.6481   10.7750 C.2     1  UNL1        0.0118
     23 C          60.0709   89.6941    9.5259 C.2     1  UNL1        0.0216
     24 C          59.8853   88.4539    8.7029 C.2     1  UNL1        0.1008
     25 N          59.1292   88.1956    7.4334 N.2     1  UNL1       -0.1482
     26 N          59.3055   86.7498    7.0750 N.2     1  UNL1       -0.1467
     27 C          60.1706   86.1145    8.1228 C.2     1  UNL1        0.1198
     28 C          60.5289   87.1677    9.1290 C.2     1  UNL1        0.0238
     29 C          61.3582   87.1218   10.3780 C.3     1  UNL1        0.0703
@<TRIPOS>BOND
     1     1     2    2
     2     2     9    1
     3     9    10    1
     4     9    12    1
     5    12    13   ar
     6    13    14   ar
     7    14    15   ar
     8    15    16   ar
     9    16    17    1
    10    16    18   ar
    11     2     3   am
    12     3     4    1
    13     4     5    1
    14     5     6    1
    15     6    19    1
    16    19    21    1
    17    21    22    2
    18    22    23    1
    19    23    24    2
    20    24    25    1
    21    25    26    2
    22    26    27    1
    23    27    28    2
    24    28    29    1
    25     6     7    1
    26     7     8    1
    27    18    12   ar
    28     8     3    1
    29    29    21    1
    30    28    24    1
    31    10    11    1
    32    19    20    1
@<TRIPOS>MOLECULE
*****
 29 32 0 0 0
SMALL
GASTEIGER

@<TRIPOS>ATOM
      1 O          67.2266   91.2727   14.7086 O.2     1  UNL1       -0.2719
      2 C          66.2366   91.9452   13.8045 C.2     1  UNL1        0.2569
      3 N          64.9805   91.2300   13.4037 N.am    1  UNL1       -0.2772
      4 C          64.7145   89.8423   13.9070 C.3     1  UNL1        0.0952
      5 C          63.4583   89.1270   13.5062 C.3     1  UNL1        0.0410
      6 C          62.4683   89.7995   12.6020 C.3     1  UNL1        0.0722
      7 C          62.7343   91.1873   12.0987 C.3     1  UNL1        0.0410
      8 C          63.9904   91.9025   12.4995 C.3     1  UNL1        0.0952
      9 C          66.5026   93.3330   13.3012 C.3     1  UNL1        0.2096
     10 O          66.4732   94.4937   14.2508 O.3     1  UNL1       -0.3719
     11 H          66.6645   95.3123   13.7669 H       1  UNL1        0.2114
     12 C          66.7979   93.5600   11.8482 C.ar    1  UNL1        0.0139
     13 C          66.3285   94.8154   11.1746 C.ar    1  UNL1       -0.0014
     14 C          66.6238   95.0424    9.7216 C.ar    1  UNL1        0.0006
     15 C          67.3886   94.0141    8.9421 C.ar    1  UNL1        0.0114
     16 C          67.8580   92.7587    9.6156 C.ar    1  UNL1        0.0574
     17 CL         68.6228   91.7303    8.8361 Cl      1  UNL1       -0.0823
     18 C          67.5626   92.5317   11.0687 C.ar    1  UNL1        0.0099
     19 N          61.2122   89.0842   12.2012 N.pl3   1  UNL1       -0.3369
     20 H          60.3798   89.2308   12.7060 H       1  UNL1        0.1465
     21 C          61.2245   88.1455   11.0312 C.2     1  UNL1        0.0262
     22 C          62.4102   87.2581   10.7940 C.2     1  UNL1        0.0118
     23 C          62.4225   86.3194    9.6240 C.2     1  UNL1        0.0216
     24 C          61.2489   86.2683    8.6912 C.2     1  UNL1        0.1008
     25 N          60.9777   85.4506    7.4633 N.2     1  UNL1       -0.1482
     26 N          59.6242   85.8328    6.9417 N.2     1  UNL1       -0.1467
     27 C          59.0590   86.8866    7.8471 C.2     1  UNL1        0.1198
     28 C          60.0631   87.1558    8.9285 C.2     1  UNL1        0.0238
     29 C          60.0509   88.0944   10.0984 C.3     1  UNL1        0.0703
@<TRIPOS>BOND
     1     1     2    2
     2     2     9    1
     3     9    10    1
     4     9    12    1
     5    12    13   ar
     6    13    14   ar
     7    14    15   ar
     8    15    16   ar
     9    16    17    1
    10    16    18   ar
    11     2     3   am
    12     3     4    1
    13     4     5    1
    14     5     6    1
    15     6    19    1
    16    19    21    1
    17    21    22    2
    18    22    23    1
    19    23    24    2
    20    24    25    1
    21    25    26    2
    22    26    27    1
    23    27    28    2
    24    28    29    1
    25     6     7    1
    26     7     8    1
    27    18    12   ar
    28     8     3    1
    29    29    21    1
    30    28    24    1
    31    10    11    1
    32    19    20    1
@<TRIPOS>MOLECULE
*****
 29 32 0 0 0
SMALL
GASTEIGER

@<TRIPOS>ATOM
      1 O          67.3921   93.7170   14.1984 O.2     1  UNL1       -0.2719
      2 C          66.4184   93.6284   13.0609 C.2     1  UNL1        0.2569
      3 N          65.5194   92.4343   12.9345 N.am    1  UNL1       -0.2772
      4 C          65.5939   91.3290   13.9457 C.3     1  UNL1        0.0952
      5 C          64.6948   90.1350   13.8194 C.3     1  UNL1        0.0410
      6 C          63.7211   90.0463   12.6818 C.3     1  UNL1        0.0722
      7 C          63.6466   91.1517   11.6706 C.3     1  UNL1        0.0410
      8 C          64.5457   92.3457   11.7969 C.3     1  UNL1        0.0952
      9 C          66.3438   94.7337   12.0496 C.3     1  UNL1        0.2096
     10 O          65.7344   96.0523   12.4234 O.3     1  UNL1       -0.3719
     11 H          65.7650   96.6506   11.6605 H       1  UNL1        0.2114
     12 C          66.8787   94.5204   10.6645 C.ar    1  UNL1        0.0139
     13 C          66.6346   95.5483    9.5996 C.ar    1  UNL1       -0.0014
     14 C          67.1695   95.3349    8.2146 C.ar    1  UNL1        0.0006
     15 C          67.9486   94.0938    7.8944 C.ar    1  UNL1        0.0114
     16 C          68.1927   93.0659    8.9592 C.ar    1  UNL1        0.0574
     17 CL         68.9718   91.8247    8.6390 Cl      1  UNL1       -0.0823
     18 C          67.6578   93.2793   10.3443 C.ar    1  UNL1        0.0099
     19 N          62.8220   88.8523   12.5555 N.pl3   1  UNL1       -0.3369
     20 H          61.9268   88.9500   12.1577 H       1  UNL1        0.1465
     21 C          63.2870   87.5092   13.0353 C.2     1  UNL1        0.0262
     22 C          64.0877   87.4002   14.2989 C.2     1  UNL1        0.0118
     23 C          64.5527   86.0572   14.7788 C.2     1  UNL1        0.0216
     24 C          64.2169   84.8233   13.9948 C.2     1  UNL1        0.1008
     25 N          64.5353   83.3746   14.2184 N.2     1  UNL1       -0.1482
     26 N          63.9313   82.5883   13.0928 N.2     1  UNL1       -0.1467
     27 C          63.2397   83.5510   12.1736 C.2     1  UNL1        0.1198
     28 C          63.4162   84.9323   12.7311 C.2     1  UNL1        0.0238
     29 C          62.9512   86.2753   12.2514 C.3     1  UNL1        0.0703
@<TRIPOS>BOND
     1     1     2    2
     2     2     9    1
     3     9    10    1
     4     9    12    1
     5    12    13   ar
     6    13    14   ar
     7    14    15   ar
     8    15    16   ar
     9    16    17    1
    10    16    18   ar
    11     2     3   am
    12     3     4    1
    13     4     5    1
    14     5     6    1
    15     6    19    1
    16    19    21    1
    17    21    22    2
    18    22    23    1
    19    23    24    2
    20    24    25    1
    21    25    26    2
    22    26    27    1
    23    27    28    2
    24    28    29    1
    25     6     7    1
    26     7     8    1
    27    18    12   ar
    28     8     3    1
    29    29    21    1
    30    28    24    1
    31    10    11    1
    32    19    20    1
@<TRIPOS>MOLECULE
*****
 29 32 0 0 0
SMALL
GASTEIGER

@<TRIPOS>ATOM
      1 O          62.6226   92.9532    2.4038 O.2     1  UNL1       -0.2719
      2 C          61.1429   93.0669    2.6219 C.2     1  UNL1        0.2569
      3 N          60.4650   92.1934    3.6355 N.am    1  UNL1       -0.2772
      4 C          61.2666   91.2063    4.4310 C.3     1  UNL1        0.0952
      5 C          60.5886   90.3328    5.4446 C.3     1  UNL1        0.0410
      6 C          59.1090   90.4465    5.6628 C.3     1  UNL1        0.0722
      7 C          58.3073   91.4337    4.8673 C.3     1  UNL1        0.0410
      8 C          58.9852   92.3071    3.8537 C.3     1  UNL1        0.0952
      9 C          60.3412   94.0540    1.8265 C.3     1  UNL1        0.2096
     10 O          59.9611   95.3728    2.4318 O.3     1  UNL1       -0.3719
     11 H          59.4485   95.8878    1.7892 H       1  UNL1        0.2114
     12 C          59.9195   93.7224    0.4257 C.ar    1  UNL1        0.0139
     13 C          60.8700   93.9377   -0.7146 C.ar    1  UNL1       -0.0014
     14 C          60.4482   93.6061   -2.1153 C.ar    1  UNL1        0.0006
     15 C          59.0760   93.0592   -2.3759 C.ar    1  UNL1        0.0114
     16 C          58.1254   92.8440   -1.2357 C.ar    1  UNL1        0.0574
     17 CL         56.7532   92.2971   -1.4962 Cl      1  UNL1       -0.0823
     18 C          58.5472   93.1756    0.1651 C.ar    1  UNL1        0.0099
     19 N          58.4310   89.5730    6.6764 N.pl3   1  UNL1       -0.3369
     20 H          57.4496   89.5794    6.7540 H       1  UNL1        0.1465
     21 C          59.2485   88.6897    7.5719 C.2     1  UNL1        0.0262
     22 C          59.2931   87.2104    7.3283 C.2     1  UNL1        0.0118
     23 C          60.1106   86.3272    8.2238 C.2     1  UNL1        0.0216
     24 C          60.8834   86.9234    9.3627 C.2     1  UNL1        0.1008
     25 N          61.7704   86.3087   10.4045 N.2     1  UNL1       -0.1482
     26 N          62.2740   87.4082   11.2919 N.2     1  UNL1       -0.1467
     27 C          61.6982   88.7025   10.7985 C.2     1  UNL1        0.1198
     28 C          60.8388   88.4029    9.6062 C.2     1  UNL1        0.0238
     29 C          60.0213   89.2860    8.7108 C.3     1  UNL1        0.0703
@<TRIPOS>BOND
     1     1     2    2
     2     2     9    1
     3     9    10    1
     4     9    12    1
     5    12    13   ar
     6    13    14   ar
     7    14    15   ar
     8    15    16   ar
     9    16    17    1
    10    16    18   ar
    11     2     3   am
    12     3     4    1
    13     4     5    1
    14     5     6    1
    15     6    19    1
    16    19    21    1
    17    21    22    2
    18    22    23    1
    19    23    24    2
    20    24    25    1
    21    25    26    2
    22    26    27    1
    23    27    28    2
    24    28    29    1
    25     6     7    1
    26     7     8    1
    27    18    12   ar
    28     8     3    1
    29    29    21    1
    30    28    24    1
    31    10    11    1
    32    19    20    1
