@<TRIPOS>MOLECULE
*****
 33 36 0 0 0
SMALL
GASTEIGER

@<TRIPOS>ATOM
      1 C          62.8942   85.0360   10.2857 C.2     1  UNL1        0.2327
      2 O          62.8203   85.8446    9.0244 O.2     1  UNL1       -0.2743
      3 N          62.6095   85.6825   11.6089 N.am    1  UNL1       -0.2537
      4 H          62.6580   85.1518   12.4366 H       1  UNL1        0.1577
      5 C          62.2510   87.1377   11.6709 C.ar    1  UNL1        0.2227
      6 N          60.9584   87.6175   11.0803 N.ar    1  UNL1       -0.2120
      7 C          60.5999   89.0727   11.1423 C.ar    1  UNL1        0.1034
      8 C          61.5340   90.0481   11.7951 C.ar    1  UNL1        0.0400
      9 C          62.8267   89.5683   12.3858 C.ar    1  UNL1        0.0873
     10 N          63.1851   88.1131   12.3237 N.ar    1  UNL1       -0.2134
     11 C          63.7608   90.5437   13.0385 C.ar    1  UNL1        0.0399
     12 C          64.0718   90.6210   14.5038 C.ar    1  UNL1        0.1021
     13 N          65.0511   91.7382   14.7114 N.ar    1  UNL1       -0.2269
     14 C          65.3453   92.3512   13.3743 C.ar    1  UNL1        0.1406
     15 N          66.2362   93.4862   12.9647 N.ar    1  UNL1       -0.3374
     16 C          66.3297   93.8830   11.5212 C.ar    1  UNL1        0.0735
     17 C          65.5322   93.1448   10.4873 C.ar    1  UNL1        0.0186
     18 C          64.6412   92.0097   10.8969 C.ar    1  UNL1        0.0046
     19 C          64.5478   91.6129   12.3404 C.ar    1  UNL1        0.0369
     20 H          66.7596   93.9708   13.6433 H       1  UNL1        0.1674
     21 C          63.2527   83.5808   10.2236 C.3     1  UNL1        0.1118
     22 C          62.6441   82.4262   13.9715 C.ar    1  UNL1        0.0641
     23 C          62.5603   80.9384   13.7997 C.ar    1  UNL1        0.0158
     24 C          62.7073   80.3314   12.4359 C.ar    1  UNL1        0.0010
     25 C          62.9381   81.2121   11.2439 C.ar    1  UNL1       -0.0037
     26 C          63.0219   82.6999   11.4157 C.ar    1  UNL1       -0.0118
     27 C          62.8749   83.3069   12.7795 C.ar    1  UNL1        0.0121
     28 N          62.4970   83.0331   15.3353 N.pl3   1  UNL1       -0.2187
     29 H          61.9836   82.5622   16.0310 H       1  UNL1        0.1734
     30 C          63.7674   85.6820   15.9431 C.3     1  UNL1        0.1996
     31 S          63.1322   84.3576   15.6392 S.O2    1  UNL1        0.0558
     32 O          64.4911   83.7363   15.5065 O.2     1  UNL1       -0.1544
     33 O          61.7734   84.9788   15.7720 O.2     1  UNL1       -0.1544
@<TRIPOS>BOND
     1    30    31    1
     2    31    32    2
     3    31    33    2
     4    31    28    1
     5    28    22    1
     6    22    23   ar
     7    23    24   ar
     8    24    25   ar
     9    25    26   ar
    10    26    21    1
    11    21     1    1
    12     1     2    2
    13     1     3   am
    14     3     5    1
    15     5     6   ar
    16     6     7   ar
    17     7     8   ar
    18     8     9   ar
    19     9    11    1
    20    11    12   ar
    21    12    13   ar
    22    13    14   ar
    23    14    15   ar
    24    15    16   ar
    25    16    17   ar
    26    17    18   ar
    27    18    19   ar
    28     9    10   ar
    29    26    27   ar
    30    27    22   ar
    31    10     5   ar
    32    19    11   ar
    33    19    14    1
    34    28    29    1
    35     3     4    1
    36    15    20    1
@<TRIPOS>MOLECULE
*****
 33 36 0 0 0
SMALL
GASTEIGER

@<TRIPOS>ATOM
      1 C          62.6990   85.2363    9.9737 C.2     1  UNL1        0.2327
      2 O          62.9727   86.0290    8.7300 O.2     1  UNL1       -0.2743
      3 N          62.0544   85.8958   11.1567 N.am    1  UNL1       -0.2537
      4 H          61.8748   85.3755   11.9730 H       1  UNL1        0.1577
      5 C          61.6833   87.3479   11.0961 C.ar    1  UNL1        0.2227
      6 N          60.2550   87.7483   10.8732 N.ar    1  UNL1       -0.2120
      7 C          59.8839   89.2004   10.8126 C.ar    1  UNL1        0.1034
      8 C          60.9411   90.2521   10.9748 C.ar    1  UNL1        0.0400
      9 C          62.3695   89.8516   11.1977 C.ar    1  UNL1        0.0873
     10 N          62.7405   88.3995   11.2583 N.ar    1  UNL1       -0.2134
     11 C          63.4267   90.9033   11.3600 C.ar    1  UNL1        0.0399
     12 C          63.9141   91.8358   10.2909 C.ar    1  UNL1        0.1021
     13 N          64.9707   92.7159   10.8900 N.ar    1  UNL1       -0.2269
     14 C          65.1363   92.3273   12.3293 C.ar    1  UNL1        0.1406
     15 N          66.0328   92.8489   13.4130 N.ar    1  UNL1       -0.3374
     16 C          65.9749   92.2501   14.7870 C.ar    1  UNL1        0.0735
     17 C          65.0207   91.1299   15.0775 C.ar    1  UNL1        0.0186
     18 C          64.1242   90.6083   13.9938 C.ar    1  UNL1        0.0046
     19 C          64.1820   91.2071   12.6198 C.ar    1  UNL1        0.0369
     20 H          66.6591   93.5842   13.2223 H       1  UNL1        0.1674
     21 C          63.0701   83.7842   10.0343 C.3     1  UNL1        0.1118
     22 C          63.9950   83.1943   13.8484 C.ar    1  UNL1        0.0641
     23 C          63.5916   81.7597   14.0192 C.ar    1  UNL1        0.0158
     24 C          63.0143   80.9999   12.8618 C.ar    1  UNL1        0.0010
     25 C          62.8405   81.6747   11.5335 C.ar    1  UNL1       -0.0037
     26 C          63.2439   83.1093   11.3627 C.ar    1  UNL1       -0.0118
     27 C          63.8212   83.8690   12.5201 C.ar    1  UNL1        0.0121
     28 N          64.5722   83.9540   15.0058 N.pl3   1  UNL1       -0.2187
     29 H          65.0762   83.4780   15.7048 H       1  UNL1        0.1734
     30 C          64.1909   86.9239   15.1905 C.3     1  UNL1        0.1996
     31 S          64.3816   85.4389   15.0981 S.O2    1  UNL1        0.0558
     32 O          62.9440   85.2311   15.4725 O.2     1  UNL1       -0.1544
     33 O          65.8191   85.6468   14.7237 O.2     1  UNL1       -0.1544
@<TRIPOS>BOND
     1    30    31    1
     2    31    32    2
     3    31    33    2
     4    31    28    1
     5    28    22    1
     6    22    23   ar
     7    23    24   ar
     8    24    25   ar
     9    25    26   ar
    10    26    21    1
    11    21     1    1
    12     1     2    2
    13     1     3   am
    14     3     5    1
    15     5     6   ar
    16     6     7   ar
    17     7     8   ar
    18     8     9   ar
    19     9    11    1
    20    11    12   ar
    21    12    13   ar
    22    13    14   ar
    23    14    15   ar
    24    15    16   ar
    25    16    17   ar
    26    17    18   ar
    27    18    19   ar
    28     9    10   ar
    29    26    27   ar
    30    27    22   ar
    31    10     5   ar
    32    19    11   ar
    33    19    14    1
    34    28    29    1
    35     3     4    1
    36    15    20    1
@<TRIPOS>MOLECULE
*****
 33 36 0 0 0
SMALL
GASTEIGER

@<TRIPOS>ATOM
      1 C          63.8785   89.5223   14.9220 C.2     1  UNL1        0.2327
      2 O          62.7082   89.6920   15.8449 O.2     1  UNL1       -0.2743
      3 N          64.3897   88.1484   14.6039 N.am    1  UNL1       -0.2537
      4 H          65.1578   88.0371   13.9982 H       1  UNL1        0.1577
      5 C          63.7307   86.9443   15.2086 C.ar    1  UNL1        0.2227
      6 N          63.2894   86.9713   16.6419 N.ar    1  UNL1       -0.2120
      7 C          62.6304   85.7672   17.2466 C.ar    1  UNL1        0.1034
      8 C          62.4127   84.5359   16.4180 C.ar    1  UNL1        0.0400
      9 C          62.8540   84.5089   14.9845 C.ar    1  UNL1        0.0873
     10 N          63.5130   85.7130   14.3799 N.ar    1  UNL1       -0.2134
     11 C          62.6363   83.2776   14.1559 C.ar    1  UNL1        0.0399
     12 C          61.8396   82.0726   14.5597 C.ar    1  UNL1        0.1021
     13 N          61.8880   81.0855   13.4313 N.ar    1  UNL1       -0.2269
     14 C          62.7147   81.6805   12.3301 C.ar    1  UNL1        0.1406
     15 N          63.1060   81.1637   10.9774 N.ar    1  UNL1       -0.3374
     16 C          63.9598   82.0016   10.0726 C.ar    1  UNL1        0.0735
     17 C          64.4223   83.3565   10.5205 C.ar    1  UNL1        0.0186
     18 C          64.0310   83.8733   11.8731 C.ar    1  UNL1        0.0046
     19 C          63.1771   83.0353   12.7779 C.ar    1  UNL1        0.0369
     20 H          62.8025   80.2744   10.6835 H       1  UNL1        0.1674
     21 C          64.5375   90.7264   14.3174 C.3     1  UNL1        0.1118
     22 C          62.7745   90.9096   10.7665 C.ar    1  UNL1        0.0641
     23 C          63.6999   91.8387   10.0382 C.ar    1  UNL1        0.0158
     24 C          64.9044   92.3971   10.7362 C.ar    1  UNL1        0.0010
     25 C          65.1837   92.0264   12.1626 C.ar    1  UNL1       -0.0037
     26 C          64.2583   91.0972   12.8909 C.ar    1  UNL1       -0.0118
     27 C          63.0538   90.5388   12.1928 C.ar    1  UNL1        0.0121
     28 N          61.5700   90.3512   10.0684 N.pl3   1  UNL1       -0.2187
     29 H          61.1347   90.8654    9.3505 H       1  UNL1        0.1734
     30 C          60.4876   87.6675   10.8597 C.3     1  UNL1        0.1996
     31 S          61.0288   89.0093   10.4641 S.O2    1  UNL1        0.0558
     32 O          59.8569   89.6759   11.1215 O.2     1  UNL1       -0.1544
     33 O          62.2007   88.3428    9.8066 O.2     1  UNL1       -0.1544
@<TRIPOS>BOND
     1    30    31    1
     2    31    32    2
     3    31    33    2
     4    31    28    1
     5    28    22    1
     6    22    23   ar
     7    23    24   ar
     8    24    25   ar
     9    25    26   ar
    10    26    21    1
    11    21     1    1
    12     1     2    2
    13     1     3   am
    14     3     5    1
    15     5     6   ar
    16     6     7   ar
    17     7     8   ar
    18     8     9   ar
    19     9    11    1
    20    11    12   ar
    21    12    13   ar
    22    13    14   ar
    23    14    15   ar
    24    15    16   ar
    25    16    17   ar
    26    17    18   ar
    27    18    19   ar
    28     9    10   ar
    29    26    27   ar
    30    27    22   ar
    31    10     5   ar
    32    19    11   ar
    33    19    14    1
    34    28    29    1
    35     3     4    1
    36    15    20    1
@<TRIPOS>MOLECULE
*****
 33 36 0 0 0
SMALL
GASTEIGER

@<TRIPOS>ATOM
      1 C          63.1861   89.4299   13.2582 C.2     1  UNL1        0.2327
      2 O          63.8529   88.1039   13.4750 O.2     1  UNL1       -0.2743
      3 N          62.1469   89.5806   12.1872 N.am    1  UNL1       -0.2537
      4 H          61.7092   90.4509   12.0449 H       1  UNL1        0.1577
      5 C          61.7743   88.4053   11.3329 C.ar    1  UNL1        0.2227
      6 N          60.6542   88.5232   10.3423 N.ar    1  UNL1       -0.2120
      7 C          60.2816   87.3479    9.4880 C.ar    1  UNL1        0.1034
      8 C          61.0291   86.0546    9.6244 C.ar    1  UNL1        0.0400
      9 C          62.1493   85.9366   10.6152 C.ar    1  UNL1        0.0873
     10 N          62.5218   87.1120   11.4694 N.ar    1  UNL1       -0.2134
     11 C          62.8968   84.6433   10.7516 C.ar    1  UNL1        0.0399
     12 C          63.6608   83.9476    9.6642 C.ar    1  UNL1        0.1021
     13 N          64.2477   82.6930   10.2400 N.ar    1  UNL1       -0.2269
     14 C          63.8465   82.6133   11.6832 C.ar    1  UNL1        0.1406
     15 N          64.1335   81.5990   12.7502 N.ar    1  UNL1       -0.3374
     16 C          63.5856   81.7900   14.1334 C.ar    1  UNL1        0.0735
     17 C          62.7507   82.9954   14.4496 C.ar    1  UNL1        0.0186
     18 C          62.4637   84.0097   13.3826 C.ar    1  UNL1        0.0046
     19 C          63.0116   83.8187   11.9993 C.ar    1  UNL1        0.0369
     20 H          64.6815   80.8078   12.5427 H       1  UNL1        0.1674
     21 C          63.5587   90.6053   14.1125 C.3     1  UNL1        0.1118
     22 C          66.1894   92.6712   11.9765 C.ar    1  UNL1        0.0641
     23 C          67.1397   93.1145   13.0491 C.ar    1  UNL1        0.0158
     24 C          66.8964   92.7213   14.4761 C.ar    1  UNL1        0.0010
     25 C          65.7028   91.8850   14.8306 C.ar    1  UNL1       -0.0037
     26 C          64.7524   91.4417   13.7580 C.ar    1  UNL1       -0.0118
     27 C          64.9957   91.8348   12.3310 C.ar    1  UNL1        0.0121
     28 N          66.4326   93.0644   10.5496 N.pl3   1  UNL1       -0.2187
     29 H          66.3724   92.3890    9.8358 H       1  UNL1        0.1734
     30 C          67.1029   95.9086    9.8708 C.3     1  UNL1        0.1996
     31 S          66.7678   94.4865   10.2102 S.O2    1  UNL1        0.0558
     32 O          68.1510   94.0652    9.8110 O.2     1  UNL1       -0.1544
     33 O          65.3846   94.9077   10.6093 O.2     1  UNL1       -0.1544
@<TRIPOS>BOND
     1    30    31    1
     2    31    32    2
     3    31    33    2
     4    31    28    1
     5    28    22    1
     6    22    23   ar
     7    23    24   ar
     8    24    25   ar
     9    25    26   ar
    10    26    21    1
    11    21     1    1
    12     1     2    2
    13     1     3   am
    14     3     5    1
    15     5     6   ar
    16     6     7   ar
    17     7     8   ar
    18     8     9   ar
    19     9    11    1
    20    11    12   ar
    21    12    13   ar
    22    13    14   ar
    23    14    15   ar
    24    15    16   ar
    25    16    17   ar
    26    17    18   ar
    27    18    19   ar
    28     9    10   ar
    29    26    27   ar
    30    27    22   ar
    31    10     5   ar
    32    19    11   ar
    33    19    14    1
    34    28    29    1
    35     3     4    1
    36    15    20    1
@<TRIPOS>MOLECULE
*****
 33 36 0 0 0
SMALL
GASTEIGER

@<TRIPOS>ATOM
      1 C          63.1417   89.7002   13.0511 C.2     1  UNL1        0.2327
      2 O          62.6053   89.9663   14.4265 O.2     1  UNL1       -0.2743
      3 N          63.6598   88.3374   12.6989 N.am    1  UNL1       -0.2537
      4 H          64.0119   88.1628   11.7962 H       1  UNL1        0.1577
      5 C          63.6416   87.2405   13.7219 C.ar    1  UNL1        0.2227
      6 N          64.0161   87.5352   15.1442 N.ar    1  UNL1       -0.2120
      7 C          63.9979   86.4384   16.1672 C.ar    1  UNL1        0.1034
      8 C          63.6052   85.0468   15.7679 C.ar    1  UNL1        0.0400
      9 C          63.2307   84.7521   14.3456 C.ar    1  UNL1        0.0873
     10 N          63.2489   85.8490   13.3226 N.ar    1  UNL1       -0.2134
     11 C          62.8380   83.3606   13.9463 C.ar    1  UNL1        0.0399
     12 C          62.0733   82.3840   14.7898 C.ar    1  UNL1        0.1021
     13 N          61.9037   81.1212   13.9982 N.ar    1  UNL1       -0.2269
     14 C          62.5636   81.3174   12.6655 C.ar    1  UNL1        0.1406
     15 N          62.7134   80.4145   11.4771 N.ar    1  UNL1       -0.3374
     16 C          63.4405   80.8957   10.2566 C.ar    1  UNL1        0.0735
     17 C          64.0179   82.2798   10.2245 C.ar    1  UNL1        0.0186
     18 C          63.8682   83.1826   11.4129 C.ar    1  UNL1        0.0046
     19 C          63.1410   82.7014   12.6334 C.ar    1  UNL1        0.0369
     20 H          62.3344   79.5061   11.4981 H       1  UNL1        0.1674
     21 C          63.1599   90.7971   12.0281 C.3     1  UNL1        0.1118
     22 C          66.0557   93.2433   13.2032 C.ar    1  UNL1        0.0641
     23 C          66.6130   93.6789   11.8804 C.ar    1  UNL1        0.0158
     24 C          66.0192   93.1540   10.6069 C.ar    1  UNL1        0.0010
     25 C          64.8682   92.1934   10.6561 C.ar    1  UNL1       -0.0037
     26 C          64.3110   91.7578   11.9789 C.ar    1  UNL1       -0.0118
     27 C          64.9048   92.2827   13.2524 C.ar    1  UNL1        0.0121
     28 N          66.6495   93.7683   14.4767 N.pl3   1  UNL1       -0.2187
     29 H          66.4708   94.6947   14.7579 H       1  UNL1        0.1734
     30 C          68.3817   91.9953   16.1666 C.3     1  UNL1        0.1996
     31 S          67.5156   92.8818   15.3216 S.O2    1  UNL1        0.0558
     32 O          68.5569   92.8700   14.2420 O.2     1  UNL1       -0.1544
     33 O          66.4744   92.8935   16.4013 O.2     1  UNL1       -0.1544
@<TRIPOS>BOND
     1    30    31    1
     2    31    32    2
     3    31    33    2
     4    31    28    1
     5    28    22    1
     6    22    23   ar
     7    23    24   ar
     8    24    25   ar
     9    25    26   ar
    10    26    21    1
    11    21     1    1
    12     1     2    2
    13     1     3   am
    14     3     5    1
    15     5     6   ar
    16     6     7   ar
    17     7     8   ar
    18     8     9   ar
    19     9    11    1
    20    11    12   ar
    21    12    13   ar
    22    13    14   ar
    23    14    15   ar
    24    15    16   ar
    25    16    17   ar
    26    17    18   ar
    27    18    19   ar
    28     9    10   ar
    29    26    27   ar
    30    27    22   ar
    31    10     5   ar
    32    19    11   ar
    33    19    14    1
    34    28    29    1
    35     3     4    1
    36    15    20    1
@<TRIPOS>MOLECULE
*****
 33 36 0 0 0
SMALL
GASTEIGER

@<TRIPOS>ATOM
      1 C          63.8707   89.7761   14.8942 C.2     1  UNL1        0.2327
      2 O          62.4156   89.6857   15.2473 O.2     1  UNL1       -0.2743
      3 N          64.6872   88.5258   14.7529 N.am    1  UNL1       -0.2537
      4 H          65.6422   88.5851   14.5212 H       1  UNL1        0.1577
      5 C          64.0487   87.1851   14.9645 C.ar    1  UNL1        0.2227
      6 N          63.4677   86.8339   16.3020 N.ar    1  UNL1       -0.2120
      7 C          62.8292   85.4931   16.5137 C.ar    1  UNL1        0.1034
      8 C          62.7718   84.5037   15.3878 C.ar    1  UNL1        0.0400
      9 C          63.3529   84.8549   14.0502 C.ar    1  UNL1        0.0873
     10 N          63.9913   86.1956   13.8386 N.ar    1  UNL1       -0.2134
     11 C          63.2954   83.8654   12.9243 C.ar    1  UNL1        0.0399
     12 C          63.5440   84.1632   11.4753 C.ar    1  UNL1        0.1021
     13 N          63.3815   82.8862   10.7053 N.ar    1  UNL1       -0.2269
     14 C          63.0325   81.7993   11.6783 C.ar    1  UNL1        0.1406
     15 N          62.7563   80.3367   11.4927 N.ar    1  UNL1       -0.3374
     16 C          62.4269   79.4793   12.6786 C.ar    1  UNL1        0.0735
     17 C          62.3737   80.0845   14.0500 C.ar    1  UNL1        0.0186
     18 C          62.6499   81.5471   14.2356 C.ar    1  UNL1        0.0046
     19 C          62.9793   82.4045   13.0498 C.ar    1  UNL1        0.0369
     20 H          62.7912   79.9395   10.5926 H       1  UNL1        0.1674
     21 C          64.5092   91.1168   14.6826 C.3     1  UNL1        0.1118
     22 C          65.8328   93.2831   11.6321 C.ar    1  UNL1        0.0641
     23 C          64.9826   92.7511   10.5166 C.ar    1  UNL1        0.0158
     24 C          63.9746   91.6744   10.7899 C.ar    1  UNL1        0.0010
     25 C          63.8168   91.1296   12.1785 C.ar    1  UNL1       -0.0037
     26 C          64.6670   91.6616   13.2939 C.ar    1  UNL1       -0.0118
     27 C          65.6750   92.7383   13.0207 C.ar    1  UNL1        0.0121
     28 N          66.8408   94.3598   11.3588 N.pl3   1  UNL1       -0.2187
     29 H          67.2550   94.8476   12.1070 H       1  UNL1        0.1734
     30 C          67.5944   95.0268    8.5327 C.3     1  UNL1        0.1996
     31 S          67.2176   94.6933    9.9458 S.O2    1  UNL1        0.0558
     32 O          68.0740   93.4634    9.8839 O.2     1  UNL1       -0.1544
     33 O          66.3612   95.9232   10.0077 O.2     1  UNL1       -0.1544
@<TRIPOS>BOND
     1    30    31    1
     2    31    32    2
     3    31    33    2
     4    31    28    1
     5    28    22    1
     6    22    23   ar
     7    23    24   ar
     8    24    25   ar
     9    25    26   ar
    10    26    21    1
    11    21     1    1
    12     1     2    2
    13     1     3   am
    14     3     5    1
    15     5     6   ar
    16     6     7   ar
    17     7     8   ar
    18     8     9   ar
    19     9    11    1
    20    11    12   ar
    21    12    13   ar
    22    13    14   ar
    23    14    15   ar
    24    15    16   ar
    25    16    17   ar
    26    17    18   ar
    27    18    19   ar
    28     9    10   ar
    29    26    27   ar
    30    27    22   ar
    31    10     5   ar
    32    19    11   ar
    33    19    14    1
    34    28    29    1
    35     3     4    1
    36    15    20    1
@<TRIPOS>MOLECULE
*****
 33 36 0 0 0
SMALL
GASTEIGER

@<TRIPOS>ATOM
      1 C          62.8203   89.7777   11.9799 C.2     1  UNL1        0.2327
      2 O          63.1830   88.5255   12.7218 O.2     1  UNL1       -0.2743
      3 N          62.1117   89.6894   10.6608 N.am    1  UNL1       -0.2537
      4 H          61.8737   90.5113   10.1740 H       1  UNL1        0.1577
      5 C          61.7658   88.3489   10.0835 C.ar    1  UNL1        0.2227
      6 N          60.6451   88.2250    9.0943 N.ar    1  UNL1       -0.2120
      7 C          60.2991   86.8845    8.5169 C.ar    1  UNL1        0.1034
      8 C          61.0739   85.6679    8.9288 C.ar    1  UNL1        0.0400
      9 C          62.1947   85.7919    9.9181 C.ar    1  UNL1        0.0873
     10 N          62.5406   87.1323   10.4954 N.ar    1  UNL1       -0.2134
     11 C          62.9695   84.5753   10.3300 C.ar    1  UNL1        0.0399
     12 C          63.7925   83.7063    9.4259 C.ar    1  UNL1        0.1021
     13 N          64.3889   82.6080   10.2555 N.ar    1  UNL1       -0.2269
     14 C          63.9345   82.7983   11.6723 C.ar    1  UNL1        0.1406
     15 N          64.2062   82.0216   12.9264 N.ar    1  UNL1       -0.3374
     16 C          63.6006   82.4607   14.2265 C.ar    1  UNL1        0.0735
     17 C          62.7233   83.6765   14.2726 C.ar    1  UNL1        0.0186
     18 C          62.4516   84.4533   13.0185 C.ar    1  UNL1        0.0046
     19 C          63.0572   84.0142   11.7183 C.ar    1  UNL1        0.0369
     20 H          64.7820   81.2236   12.8961 H       1  UNL1        0.1674
     21 C          63.1663   91.1182   12.5573 C.3     1  UNL1        0.1118
     22 C          66.9241   91.9337   13.5392 C.ar    1  UNL1        0.0641
     23 C          67.3890   92.6535   12.3081 C.ar    1  UNL1        0.0158
     24 C          66.4463   92.8616   11.1600 C.ar    1  UNL1        0.0010
     25 C          65.0387   92.3499   11.2431 C.ar    1  UNL1       -0.0037
     26 C          64.5739   91.6300   12.4742 C.ar    1  UNL1       -0.0118
     27 C          65.5166   91.4219   13.6222 C.ar    1  UNL1        0.0121
     28 N          67.8668   91.7256   14.6873 N.pl3   1  UNL1       -0.2187
     29 H          68.1063   90.8130   14.9684 H       1  UNL1        0.1734
     30 C          69.0224   94.0903   16.1268 C.3     1  UNL1        0.1996
     31 S          68.4446   92.9080   15.4070 S.O2    1  UNL1        0.0558
     32 O          67.2005   93.0096   16.2388 O.2     1  UNL1       -0.1544
     33 O          69.6887   92.8063   14.5752 O.2     1  UNL1       -0.1544
@<TRIPOS>BOND
     1    30    31    1
     2    31    32    2
     3    31    33    2
     4    31    28    1
     5    28    22    1
     6    22    23   ar
     7    23    24   ar
     8    24    25   ar
     9    25    26   ar
    10    26    21    1
    11    21     1    1
    12     1     2    2
    13     1     3   am
    14     3     5    1
    15     5     6   ar
    16     6     7   ar
    17     7     8   ar
    18     8     9   ar
    19     9    11    1
    20    11    12   ar
    21    12    13   ar
    22    13    14   ar
    23    14    15   ar
    24    15    16   ar
    25    16    17   ar
    26    17    18   ar
    27    18    19   ar
    28     9    10   ar
    29    26    27   ar
    30    27    22   ar
    31    10     5   ar
    32    19    11   ar
    33    19    14    1
    34    28    29    1
    35     3     4    1
    36    15    20    1
@<TRIPOS>MOLECULE
*****
 33 36 0 0 0
SMALL
GASTEIGER

@<TRIPOS>ATOM
      1 C          63.8732   89.4915   14.9180 C.2     1  UNL1        0.2327
      2 O          62.7284   89.6691   15.8709 O.2     1  UNL1       -0.2743
      3 N          64.3515   88.1134   14.5688 N.am    1  UNL1       -0.2537
      4 H          65.1029   87.9969   13.9434 H       1  UNL1        0.1577
      5 C          63.6850   86.9128   15.1724 C.ar    1  UNL1        0.2227
      6 N          63.2148   86.9527   16.5962 N.ar    1  UNL1       -0.2120
      7 C          62.5484   85.7520   17.1998 C.ar    1  UNL1        0.1034
      8 C          62.3521   84.5116   16.3796 C.ar    1  UNL1        0.0400
      9 C          62.8224   84.4718   14.9557 C.ar    1  UNL1        0.0873
     10 N          63.4888   85.6724   14.3522 N.ar    1  UNL1       -0.2134
     11 C          62.6261   83.2313   14.1354 C.ar    1  UNL1        0.0399
     12 C          61.8611   82.0104   14.5526 C.ar    1  UNL1        0.1021
     13 N          61.9226   81.0185   13.4290 N.ar    1  UNL1       -0.2269
     14 C          62.7257   81.6265   12.3174 C.ar    1  UNL1        0.1406
     15 N          63.1172   81.1114   10.9641 N.ar    1  UNL1       -0.3374
     16 C          63.9434   81.9640   10.0475 C.ar    1  UNL1        0.0735
     17 C          64.3782   83.3316   10.4841 C.ar    1  UNL1        0.0186
     18 C          63.9867   83.8466   11.8374 C.ar    1  UNL1        0.0046
     19 C          63.1605   82.9941   12.7541 C.ar    1  UNL1        0.0369
     20 H          62.8318   80.2138   10.6776 H       1  UNL1        0.1674
     21 C          64.5397   90.6922   14.3144 C.3     1  UNL1        0.1118
     22 C          64.8497   92.4565   10.7730 C.ar    1  UNL1        0.0641
     23 C          63.7192   91.8059   10.0323 C.ar    1  UNL1        0.0158
     24 C          62.8622   90.7841   10.7189 C.ar    1  UNL1        0.0010
     25 C          63.1356   90.4128   12.1462 C.ar    1  UNL1       -0.0037
     26 C          64.2661   91.0634   12.8870 C.ar    1  UNL1       -0.0118
     27 C          65.1231   92.0852   12.2003 C.ar    1  UNL1        0.0121
     28 N          65.7067   93.4783   10.0864 N.pl3   1  UNL1       -0.2187
     29 H          66.0675   93.2953    9.1889 H       1  UNL1        0.1734
     30 C          66.3211   96.0799   11.4481 C.3     1  UNL1        0.1996
     31 S          66.0139   94.7791   10.7673 S.O2    1  UNL1        0.0558
     32 O          64.8750   95.4292   10.0392 O.2     1  UNL1       -0.1544
     33 O          67.1528   94.1290   11.4954 O.2     1  UNL1       -0.1544
@<TRIPOS>BOND
     1    30    31    1
     2    31    32    2
     3    31    33    2
     4    31    28    1
     5    28    22    1
     6    22    23   ar
     7    23    24   ar
     8    24    25   ar
     9    25    26   ar
    10    26    21    1
    11    21     1    1
    12     1     2    2
    13     1     3   am
    14     3     5    1
    15     5     6   ar
    16     6     7   ar
    17     7     8   ar
    18     8     9   ar
    19     9    11    1
    20    11    12   ar
    21    12    13   ar
    22    13    14   ar
    23    14    15   ar
    24    15    16   ar
    25    16    17   ar
    26    17    18   ar
    27    18    19   ar
    28     9    10   ar
    29    26    27   ar
    30    27    22   ar
    31    10     5   ar
    32    19    11   ar
    33    19    14    1
    34    28    29    1
    35     3     4    1
    36    15    20    1
@<TRIPOS>MOLECULE
*****
 33 36 0 0 0
SMALL
GASTEIGER

@<TRIPOS>ATOM
      1 C          63.3308   89.5645   13.5177 C.2     1  UNL1        0.2327
      2 O          62.3444   89.7475   14.6329 O.2     1  UNL1       -0.2743
      3 N          64.0022   88.2378   13.3205 N.am    1  UNL1       -0.2537
      4 H          64.6496   88.1177   12.5886 H       1  UNL1        0.1577
      5 C          63.6872   87.0940   14.2384 C.ar    1  UNL1        0.2227
      6 N          63.7117   87.2963   15.7245 N.ar    1  UNL1       -0.2120
      7 C          63.3968   86.1525   16.6424 C.ar    1  UNL1        0.1034
      8 C          63.0574   84.8064   16.0742 C.ar    1  UNL1        0.0400
      9 C          63.0329   84.6041   14.5880 C.ar    1  UNL1        0.0873
     10 N          63.3479   85.7479   13.6702 N.ar    1  UNL1       -0.2134
     11 C          62.6935   83.2580   14.0198 C.ar    1  UNL1        0.0399
     12 C          61.8839   82.1931   14.6985 C.ar    1  UNL1        0.1021
     13 N          61.7942   81.0175   13.7713 N.ar    1  UNL1       -0.2269
     14 C          62.5484   81.3557   12.5196 C.ar    1  UNL1        0.1406
     15 N          62.8008   80.5817   11.2598 N.ar    1  UNL1       -0.3374
     16 C          63.6090   81.1924   10.1535 C.ar    1  UNL1        0.0735
     17 C          64.1648   82.5772   10.3071 C.ar    1  UNL1        0.0186
     18 C          63.9124   83.3512   11.5669 C.ar    1  UNL1        0.0046
     19 C          63.1042   82.7404   12.6732 C.ar    1  UNL1        0.0369
     20 H          62.4360   79.6729   11.1590 H       1  UNL1        0.1674
     21 C          63.6457   90.7083   12.5999 C.3     1  UNL1        0.1118
     22 C          66.2210   93.7172   12.3451 C.ar    1  UNL1        0.0641
     23 C          66.8659   93.6536   13.6979 C.ar    1  UNL1        0.0158
     24 C          66.4374   92.6083   14.6847 C.ar    1  UNL1        0.0010
     25 C          65.3641   91.6265   14.3187 C.ar    1  UNL1       -0.0037
     26 C          64.7192   91.6901   12.9659 C.ar    1  UNL1       -0.0118
     27 C          65.1477   92.7354   11.9792 C.ar    1  UNL1        0.0121
     28 N          66.6495   94.7625   11.3584 N.pl3   1  UNL1       -0.2187
     29 H          66.6054   95.7157   11.6007 H       1  UNL1        0.1734
     30 C          67.6410   93.9485    8.6465 C.3     1  UNL1        0.1996
     31 S          67.1453   94.3555   10.0024 S.O2    1  UNL1        0.0558
     32 O          67.9019   93.2174   10.6207 O.2     1  UNL1       -0.1544
     33 O          66.3887   95.4936    9.3842 O.2     1  UNL1       -0.1544
@<TRIPOS>BOND
     1    30    31    1
     2    31    32    2
     3    31    33    2
     4    31    28    1
     5    28    22    1
     6    22    23   ar
     7    23    24   ar
     8    24    25   ar
     9    25    26   ar
    10    26    21    1
    11    21     1    1
    12     1     2    2
    13     1     3   am
    14     3     5    1
    15     5     6   ar
    16     6     7   ar
    17     7     8   ar
    18     8     9   ar
    19     9    11    1
    20    11    12   ar
    21    12    13   ar
    22    13    14   ar
    23    14    15   ar
    24    15    16   ar
    25    16    17   ar
    26    17    18   ar
    27    18    19   ar
    28     9    10   ar
    29    26    27   ar
    30    27    22   ar
    31    10     5   ar
    32    19    11   ar
    33    19    14    1
    34    28    29    1
    35     3     4    1
    36    15    20    1
