@<TRIPOS>MOLECULE
*****
 27 30 0 0 0
SMALL
GASTEIGER

@<TRIPOS>ATOM
      1 C          65.4887   92.2820   14.3793 C.ar    1  UNL1        0.0601
      2 S          66.4040   93.0840   13.5025 S.2     1  UNL1       -0.0507
      3 C          66.1026   92.7348   12.0752 C.ar    1  UNL1        0.1629
      4 N          65.0008   91.7168   12.0699 N.ar    1  UNL1       -0.2279
      5 C          64.6214   91.4370   13.4939 C.ar    1  UNL1        0.0772
      6 N          66.7833   93.3036   10.8657 N.pl3   1  UNL1       -0.2830
      7 C          66.5768   94.7425   10.4960 C.3     1  UNL1        0.1247
      8 C          67.2575   95.3113    9.2865 C.3     1  UNL1        0.1636
      9 O          68.1448   94.4411    8.4465 O.3     1  UNL1       -0.3501
     10 C          68.3513   93.0021    8.8162 C.3     1  UNL1        0.1636
     11 C          67.6706   92.4334   10.0257 C.3     1  UNL1        0.1247
     12 O          66.6889   92.6451   16.6548 O.co2   1  UNL1       -0.5440
     13 C          65.4477   92.3185   15.8783 C.2     1  UNL1        0.0801
     14 O          64.1656   92.0284   16.6008 O.co2   1  UNL1       -0.5440
     15 C          63.5610   90.4802   13.9520 C.3     1  UNL1        0.1318
     16 C          63.2728   89.2424   13.1553 C.2     1  UNL1        0.2354
     17 O          63.8869   87.9334   13.5546 O.2     1  UNL1       -0.2741
     18 N          62.3704   89.3136   11.9592 N.am    1  UNL1       -0.2583
     19 C          61.6878   90.5449   11.4417 C.3     1  UNL1        0.1029
     20 C          60.8878   90.1582   10.2333 C.3     1  UNL1        0.0503
     21 C          61.0759   88.6878   10.0038 C.ar    1  UNL1        0.0038
     22 C          60.5312   87.7569    8.9614 C.ar    1  UNL1        0.0549
     23 CL         59.6149   88.2788    7.8948 Cl      1  UNL1       -0.0825
     24 C          60.9029   86.3038    8.9857 C.ar    1  UNL1        0.0112
     25 C          61.8192   85.7818   10.0524 C.ar    1  UNL1        0.0021
     26 C          62.3639   86.7128   11.0948 C.ar    1  UNL1        0.0146
     27 C          61.9922   88.1658   11.0706 C.ar    1  UNL1        0.0507
@<TRIPOS>UNITY_ATOM_ATTR
12 1
charge -1
@<TRIPOS>BOND
     1    12    13   ar
     2    13    14   ar
     3    13     1    1
     4     1     2   ar
     5     2     3   ar
     6     3     6    1
     7     6     7    1
     8     7     8    1
     9     8     9    1
    10     9    10    1
    11    10    11    1
    12     3     4   ar
    13     4     5   ar
    14     5    15    1
    15    15    16    1
    16    16    17    2
    17    16    18   am
    18    18    19    1
    19    19    20    1
    20    20    21    1
    21    21    22   ar
    22    22    23    1
    23    22    24   ar
    24    24    25   ar
    25    25    26   ar
    26    26    27   ar
    27     5     1   ar
    28    27    18    1
    29    11     6    1
    30    27    21   ar
@<TRIPOS>MOLECULE
*****
 27 30 0 0 0
SMALL
GASTEIGER

@<TRIPOS>ATOM
      1 C          60.8557   87.3321    9.8899 C.ar    1  UNL1        0.0601
      2 S          61.3326   85.9131    9.9852 S.2     1  UNL1       -0.0507
      3 C          62.2855   85.8209   11.1400 C.ar    1  UNL1        0.1629
      4 N          62.3975   87.1828   11.7584 N.ar    1  UNL1       -0.2279
      5 C          61.5139   88.1168   10.9859 C.ar    1  UNL1        0.0772
      6 N          63.0007   84.5838   11.5962 N.pl3   1  UNL1       -0.2830
      7 C          63.6155   83.6583   10.5886 C.3     1  UNL1        0.1247
      8 C          64.3307   82.4212   11.0448 C.3     1  UNL1        0.1636
      9 O          64.4312   82.1098   12.5088 O.3     1  UNL1       -0.3501
     10 C          63.8164   83.0354   13.5163 C.3     1  UNL1        0.1636
     11 C          63.1012   84.2724   13.0601 C.3     1  UNL1        0.1247
     12 O          58.7430   87.0258    8.4092 O.co2   1  UNL1       -0.5440
     13 C          59.8902   87.8716    8.8767 C.2     1  UNL1        0.0801
     14 O          60.0719   89.2569    8.3308 O.co2   1  UNL1       -0.5440
     15 C          61.3221   89.5789   11.2609 C.3     1  UNL1        0.1318
     16 C          62.4961   90.5112   11.2137 C.2     1  UNL1        0.2354
     17 O          62.8359   91.2255    9.9392 O.2     1  UNL1       -0.2741
     18 N          63.3304   90.7294   12.4411 N.am    1  UNL1       -0.2583
     19 C          63.1138   90.0885   13.7798 C.3     1  UNL1        0.1029
     20 C          64.1774   90.5897   14.7112 C.3     1  UNL1        0.0503
     21 C          65.0514   91.5404   13.9482 C.ar    1  UNL1        0.0038
     22 C          66.2562   92.3386   14.3496 C.ar    1  UNL1        0.0549
     23 CL         66.7797   92.2524   15.7526 Cl      1  UNL1       -0.0825
     24 C          66.9376   93.2232   13.3480 C.ar    1  UNL1        0.0112
     25 C          66.4142   93.3096   11.9449 C.ar    1  UNL1        0.0021
     26 C          65.2093   92.5113   11.5434 C.ar    1  UNL1        0.0146
     27 C          64.5279   91.6267   12.5451 C.ar    1  UNL1        0.0507
@<TRIPOS>UNITY_ATOM_ATTR
12 1
charge -1
@<TRIPOS>BOND
     1    12    13   ar
     2    13    14   ar
     3    13     1    1
     4     1     2   ar
     5     2     3   ar
     6     3     6    1
     7     6     7    1
     8     7     8    1
     9     8     9    1
    10     9    10    1
    11    10    11    1
    12     3     4   ar
    13     4     5   ar
    14     5    15    1
    15    15    16    1
    16    16    17    2
    17    16    18   am
    18    18    19    1
    19    19    20    1
    20    20    21    1
    21    21    22   ar
    22    22    23    1
    23    22    24   ar
    24    24    25   ar
    25    25    26   ar
    26    26    27   ar
    27     5     1   ar
    28    27    18    1
    29    11     6    1
    30    27    21   ar
@<TRIPOS>MOLECULE
*****
 27 30 0 0 0
SMALL
GASTEIGER

@<TRIPOS>ATOM
      1 C          61.3830   86.7327   10.1801 C.ar    1  UNL1        0.0601
      2 S          61.6572   85.2849   10.4604 S.2     1  UNL1       -0.0507
      3 C          62.4338   85.1996   11.7409 C.ar    1  UNL1        0.1629
      4 N          62.6394   86.5947   12.2521 N.ar    1  UNL1       -0.2279
      5 C          61.9900   87.5422   11.2875 C.ar    1  UNL1        0.0772
      6 N          62.9193   83.9402   12.3953 N.pl3   1  UNL1       -0.2830
      7 C          62.6930   83.7218   13.8618 C.3     1  UNL1        0.1247
      8 C          63.1786   82.4624   14.5162 C.3     1  UNL1        0.1636
      9 O          63.8906   81.4215   13.7040 O.3     1  UNL1       -0.3501
     10 C          64.1168   81.6400   12.2373 C.3     1  UNL1        0.1636
     11 C          63.6312   82.8994   11.5830 C.3     1  UNL1        0.1247
     12 O          59.9559   88.6110    9.0912 O.co2   1  UNL1       -0.5440
     13 C          60.6333   87.2758    8.9998 C.2     1  UNL1        0.0801
     14 O          60.5609   86.4835    7.7282 O.co2   1  UNL1       -0.5440
     15 C          61.9540   89.0369   11.4089 C.3     1  UNL1        0.1318
     16 C          62.8955   89.7363   12.3440 C.2     1  UNL1        0.2354
     17 O          63.0332   89.2647   13.7612 O.2     1  UNL1       -0.2741
     18 N          63.6993   90.9074   11.8618 N.am    1  UNL1       -0.2583
     19 C          63.6677   91.4893   10.4797 C.3     1  UNL1        0.1029
     20 C          64.6247   92.6437   10.4409 C.3     1  UNL1        0.0503
     21 C          65.2478   92.7753   11.7989 C.ar    1  UNL1        0.0038
     22 C          66.2620   93.7335   12.3493 C.ar    1  UNL1        0.0549
     23 CL         66.8339   94.8066   11.4712 Cl      1  UNL1       -0.0825
     24 C          66.7044   93.6187   13.7780 C.ar    1  UNL1        0.0112
     25 C          66.1325   92.5456   14.6563 C.ar    1  UNL1        0.0021
     26 C          65.1182   91.5872   14.1058 C.ar    1  UNL1        0.0146
     27 C          64.6758   91.7021   12.6771 C.ar    1  UNL1        0.0507
@<TRIPOS>UNITY_ATOM_ATTR
12 1
charge -1
@<TRIPOS>BOND
     1    12    13   ar
     2    13    14   ar
     3    13     1    1
     4     1     2   ar
     5     2     3   ar
     6     3     6    1
     7     6     7    1
     8     7     8    1
     9     8     9    1
    10     9    10    1
    11    10    11    1
    12     3     4   ar
    13     4     5   ar
    14     5    15    1
    15    15    16    1
    16    16    17    2
    17    16    18   am
    18    18    19    1
    19    19    20    1
    20    20    21    1
    21    21    22   ar
    22    22    23    1
    23    22    24   ar
    24    24    25   ar
    25    25    26   ar
    26    26    27   ar
    27     5     1   ar
    28    27    18    1
    29    11     6    1
    30    27    21   ar
@<TRIPOS>MOLECULE
*****
 27 30 0 0 0
SMALL
GASTEIGER

@<TRIPOS>ATOM
      1 C          63.1565   88.8718   12.5493 C.ar    1  UNL1        0.0601
      2 S          62.2874   89.3080   11.4072 S.2     1  UNL1       -0.0507
      3 C          61.7645   88.0780   10.7264 C.ar    1  UNL1        0.1629
      4 N          62.3103   86.8814   11.4477 N.ar    1  UNL1       -0.2279
      5 C          63.1706   87.3720   12.5743 C.ar    1  UNL1        0.0772
      6 N          60.8553   88.0495    9.5336 N.pl3   1  UNL1       -0.2830
      7 C          60.3405   86.7399    9.0142 C.3     1  UNL1        0.1247
      8 C          59.4313   86.7114    7.8214 C.3     1  UNL1        0.1636
      9 O          59.0370   87.9926    7.1482 O.3     1  UNL1       -0.3501
     10 C          59.5519   89.3022    7.6677 C.3     1  UNL1        0.1636
     11 C          60.4610   89.3306    8.8604 C.3     1  UNL1        0.1247
     12 O          64.7172   90.9057   12.9704 O.co2   1  UNL1       -0.5440
     13 C          63.8836   89.7763   13.4995 C.2     1  UNL1        0.0801
     14 O          63.7773   89.5517   14.9787 O.co2   1  UNL1       -0.5440
     15 C          63.9145   86.5136   13.5540 C.3     1  UNL1        0.1318
     16 C          63.3754   85.1653   13.9302 C.2     1  UNL1        0.2354
     17 O          62.7956   84.9437   15.2957 O.2     1  UNL1       -0.2741
     18 N          63.4162   84.0386   12.9407 N.am    1  UNL1       -0.2583
     19 C          63.9627   84.1095   11.5458 C.3     1  UNL1        0.1029
     20 C          63.8019   82.7579   10.9156 C.3     1  UNL1        0.0503
     21 C          63.1559   81.8515   11.9211 C.ar    1  UNL1        0.0038
     22 C          62.7540   80.4077   11.8587 C.ar    1  UNL1        0.0549
     23 CL         62.9923   79.6162   10.6071 Cl      1  UNL1       -0.0825
     24 C          62.1136   79.7554   13.0481 C.ar    1  UNL1        0.0112
     25 C          61.8752   80.5469   14.2997 C.ar    1  UNL1        0.0021
     26 C          62.2772   81.9908   14.3621 C.ar    1  UNL1        0.0146
     27 C          62.9176   82.6431   13.1728 C.ar    1  UNL1        0.0507
@<TRIPOS>UNITY_ATOM_ATTR
12 1
charge -1
@<TRIPOS>BOND
     1    12    13   ar
     2    13    14   ar
     3    13     1    1
     4     1     2   ar
     5     2     3   ar
     6     3     6    1
     7     6     7    1
     8     7     8    1
     9     8     9    1
    10     9    10    1
    11    10    11    1
    12     3     4   ar
    13     4     5   ar
    14     5    15    1
    15    15    16    1
    16    16    17    2
    17    16    18   am
    18    18    19    1
    19    19    20    1
    20    20    21    1
    21    21    22   ar
    22    22    23    1
    23    22    24   ar
    24    24    25   ar
    25    25    26   ar
    26    26    27   ar
    27     5     1   ar
    28    27    18    1
    29    11     6    1
    30    27    21   ar
@<TRIPOS>MOLECULE
*****
 27 30 0 0 0
SMALL
GASTEIGER

@<TRIPOS>ATOM
      1 C          61.0924   90.0045   11.4247 C.ar    1  UNL1        0.0601
      2 S          62.0379   91.0159   12.0019 S.2     1  UNL1       -0.0507
      3 C          63.3804   90.8121   11.3644 C.ar    1  UNL1        0.1629
      4 N          63.2646   89.6748   10.3934 N.ar    1  UNL1       -0.2279
      5 C          61.8505   89.1757   10.4306 C.ar    1  UNL1        0.0772
      6 N          64.6208   91.6063   11.6483 N.pl3   1  UNL1       -0.2830
      7 C          65.1893   91.6390   13.0359 C.3     1  UNL1        0.1247
      8 C          66.4297   92.4332   13.3198 C.3     1  UNL1        0.1636
      9 O          67.1018   93.1947   12.2158 O.3     1  UNL1       -0.3501
     10 C          66.5332   93.1619   10.8281 C.3     1  UNL1        0.1636
     11 C          65.2928   92.3678   10.5444 C.3     1  UNL1        0.1247
     12 O          59.1536   88.5698   12.3905 O.co2   1  UNL1       -0.5440
     13 C          59.6432   89.8492   11.7795 C.2     1  UNL1        0.0801
     14 O          58.6838   90.9733   11.5232 O.co2   1  UNL1       -0.5440
     15 C          61.2926   88.0460    9.6167 C.3     1  UNL1        0.1318
     16 C          62.0320   86.7434    9.5355 C.2     1  UNL1        0.2354
     17 O          62.4888   86.2219    8.2054 O.2     1  UNL1       -0.2741
     18 N          62.3146   85.9623   10.7846 N.am    1  UNL1       -0.2583
     19 C          61.9220   86.3552   12.1779 C.3     1  UNL1        0.1029
     20 C          62.4042   85.2869   13.1139 C.3     1  UNL1        0.0503
     21 C          63.0949   84.2338   12.2992 C.ar    1  UNL1        0.0038
     22 C          63.7670   82.9486   12.6821 C.ar    1  UNL1        0.0549
     23 CL         63.8224   82.5312   14.1217 Cl      1  UNL1       -0.0825
     24 C          64.3838   82.0810   11.6253 C.ar    1  UNL1        0.0112
     25 C          64.3285   82.4984   10.1857 C.ar    1  UNL1        0.0021
     26 C          63.6563   83.7836    9.8027 C.ar    1  UNL1        0.0146
     27 C          63.0395   84.6513   10.8594 C.ar    1  UNL1        0.0507
@<TRIPOS>UNITY_ATOM_ATTR
12 1
charge -1
@<TRIPOS>BOND
     1    12    13   ar
     2    13    14   ar
     3    13     1    1
     4     1     2   ar
     5     2     3   ar
     6     3     6    1
     7     6     7    1
     8     7     8    1
     9     8     9    1
    10     9    10    1
    11    10    11    1
    12     3     4   ar
    13     4     5   ar
    14     5    15    1
    15    15    16    1
    16    16    17    2
    17    16    18   am
    18    18    19    1
    19    19    20    1
    20    20    21    1
    21    21    22   ar
    22    22    23    1
    23    22    24   ar
    24    24    25   ar
    25    25    26   ar
    26    26    27   ar
    27     5     1   ar
    28    27    18    1
    29    11     6    1
    30    27    21   ar
@<TRIPOS>MOLECULE
*****
 27 30 0 0 0
SMALL
GASTEIGER

@<TRIPOS>ATOM
      1 C          61.4967   88.8246   10.8757 C.ar    1  UNL1        0.0601
      2 S          61.4866   87.3259   10.9373 S.2     1  UNL1       -0.0507
      3 C          62.5847   86.8926   11.8628 C.ar    1  UNL1        0.1629
      4 N          63.2735   88.1235   12.3731 N.ar    1  UNL1       -0.2279
      5 C          62.6010   89.3175   11.7630 C.ar    1  UNL1        0.0772
      6 N          62.9329   85.4770   12.2159 N.pl3   1  UNL1       -0.2830
      7 C          62.5770   84.3611   11.2790 C.3     1  UNL1        0.1247
      8 C          62.9252   82.9454   11.6321 C.3     1  UNL1        0.1636
      9 O          63.6293   82.6457   12.9223 O.3     1  UNL1       -0.3501
     10 C          63.9851   83.7617   13.8593 C.3     1  UNL1        0.1636
     11 C          63.6369   85.1773   13.5061 C.3     1  UNL1        0.1247
     12 O          59.8165   90.8006   10.7264 O.co2   1  UNL1       -0.5440
     13 C          60.5659   89.6801   10.0684 C.2     1  UNL1        0.0801
     14 O          60.3845   89.4151    8.6032 O.co2   1  UNL1       -0.5440
     15 C          62.9685   90.7526   11.9989 C.3     1  UNL1        0.1318
     16 C          63.7273   91.1393   13.2337 C.2     1  UNL1        0.2354
     17 O          63.0334   91.1649   14.5632 O.2     1  UNL1       -0.2741
     18 N          65.1801   91.5004   13.1388 N.am    1  UNL1       -0.2583
     19 C          66.0037   91.5201   11.8854 C.3     1  UNL1        0.1029
     20 C          67.3969   91.9371   12.2527 C.3     1  UNL1        0.0503
     21 C          67.4345   92.1752   13.7332 C.ar    1  UNL1        0.0038
     22 C          68.5392   92.6028   14.6534 C.ar    1  UNL1        0.0549
     23 CL         69.9092   92.8727   14.1058 Cl      1  UNL1       -0.0825
     24 C          68.2737   92.7606   16.1213 C.ar    1  UNL1        0.0112
     25 C          66.9036   92.4907   16.6690 C.ar    1  UNL1        0.0021
     26 C          65.7989   92.0630   15.7488 C.ar    1  UNL1        0.0146
     27 C          66.0643   91.9053   14.2809 C.ar    1  UNL1        0.0507
@<TRIPOS>UNITY_ATOM_ATTR
12 1
charge -1
@<TRIPOS>BOND
     1    12    13   ar
     2    13    14   ar
     3    13     1    1
     4     1     2   ar
     5     2     3   ar
     6     3     6    1
     7     6     7    1
     8     7     8    1
     9     8     9    1
    10     9    10    1
    11    10    11    1
    12     3     4   ar
    13     4     5   ar
    14     5    15    1
    15    15    16    1
    16    16    17    2
    17    16    18   am
    18    18    19    1
    19    19    20    1
    20    20    21    1
    21    21    22   ar
    22    22    23    1
    23    22    24   ar
    24    24    25   ar
    25    25    26   ar
    26    26    27   ar
    27     5     1   ar
    28    27    18    1
    29    11     6    1
    30    27    21   ar
@<TRIPOS>MOLECULE
*****
 27 30 0 0 0
SMALL
GASTEIGER

@<TRIPOS>ATOM
      1 C          62.0964   89.1646   12.2147 C.ar    1  UNL1        0.0601
      2 S          62.5298   90.3257   13.0596 S.2     1  UNL1       -0.0507
      3 C          63.8198   89.9554   13.7296 C.ar    1  UNL1        0.1629
      4 N          64.1837   88.5655   13.2987 N.ar    1  UNL1       -0.2279
      5 C          63.1186   88.0768   12.3624 C.ar    1  UNL1        0.0772
      6 N          64.6076   90.8229   14.6661 N.pl3   1  UNL1       -0.2830
      7 C          66.0249   91.1875   14.3373 C.3     1  UNL1        0.1247
      8 C          66.8127   92.0549   15.2738 C.3     1  UNL1        0.1636
      9 O          66.1831   92.5577   16.5391 O.3     1  UNL1       -0.3501
     10 C          64.7657   92.1930   16.8678 C.3     1  UNL1        0.1636
     11 C          63.9780   91.3256   15.9313 C.3     1  UNL1        0.1247
     12 O          59.6445   88.3771   11.8712 O.co2   1  UNL1       -0.5440
     13 C          60.8583   89.1023   11.3702 C.2     1  UNL1        0.0801
     14 O          60.8339   89.7651   10.0249 O.co2   1  UNL1       -0.5440
     15 C          63.0820   86.7356   11.6917 C.3     1  UNL1        0.1318
     16 C          62.7891   85.5031   12.4948 C.2     1  UNL1        0.2354
     17 O          62.3695   85.6250   13.9297 O.2     1  UNL1       -0.2741
     18 N          62.9158   84.1485   11.8629 N.am    1  UNL1       -0.2583
     19 C          63.3230   83.8711   10.4463 C.3     1  UNL1        0.1029
     20 C          63.3164   82.3847   10.2447 C.3     1  UNL1        0.0503
     21 C          62.9050   81.7434   11.5368 C.ar    1  UNL1        0.0038
     22 C          62.7239   80.3078   11.9319 C.ar    1  UNL1        0.0549
     23 CL         62.9714   79.2177   10.9318 Cl      1  UNL1       -0.0825
     24 C          62.2951   79.9623   13.3272 C.ar    1  UNL1        0.0112
     25 C          62.0475   81.0524   14.3274 C.ar    1  UNL1        0.0021
     26 C          62.2287   82.4881   13.9323 C.ar    1  UNL1        0.0146
     27 C          62.6574   82.8336   12.5370 C.ar    1  UNL1        0.0507
@<TRIPOS>UNITY_ATOM_ATTR
12 1
charge -1
@<TRIPOS>BOND
     1    12    13   ar
     2    13    14   ar
     3    13     1    1
     4     1     2   ar
     5     2     3   ar
     6     3     6    1
     7     6     7    1
     8     7     8    1
     9     8     9    1
    10     9    10    1
    11    10    11    1
    12     3     4   ar
    13     4     5   ar
    14     5    15    1
    15    15    16    1
    16    16    17    2
    17    16    18   am
    18    18    19    1
    19    19    20    1
    20    20    21    1
    21    21    22   ar
    22    22    23    1
    23    22    24   ar
    24    24    25   ar
    25    25    26   ar
    26    26    27   ar
    27     5     1   ar
    28    27    18    1
    29    11     6    1
    30    27    21   ar
