@<TRIPOS>MOLECULE
*****
 31 34 0 0 0
SMALL
GASTEIGER

@<TRIPOS>ATOM
      1 C          61.2693   88.2565   10.0811 C.ar    1  UNL1        0.0951
      2 C          60.3634   88.0487    8.9038 C.ar    1  UNL1        0.1454
      3 F          59.3449   89.0909    8.5480 F       1  UNL1       -0.2040
      4 C          60.4759   86.7988    8.0822 C.ar    1  UNL1        0.0312
      5 C          61.4943   85.7566    8.4379 C.ar    1  UNL1        0.0204
      6 C          62.4003   85.9644    9.6153 C.ar    1  UNL1        0.0924
      7 C          62.2878   87.2144   10.4369 C.ar    1  UNL1        0.1598
      8 F          63.1937   87.4221   11.6142 F       1  UNL1       -0.2026
      9 C          61.1567   89.5065   10.9027 C.2     1  UNL1        0.2036
     10 O          59.8283   89.9172   11.4652 O.2     1  UNL1       -0.2863
     11 C          63.3769   89.7389   16.3624 C.3     1  UNL1        0.0307
     12 C          63.6607   90.3049   15.0026 C.2     1  UNL1        0.0074
     13 C          64.8269   91.2268   14.8023 C.2     1  UNL1        0.2278
     14 N          65.1106   91.7928   13.4425 N.2     1  UNL1       -0.0314
     15 C          64.2281   91.4370   12.2829 C.2     1  UNL1        0.3720
     16 N          64.2597   91.8373   10.8377 N.2     1  UNL1       -0.0307
     17 C          63.1130   91.1628   10.1447 C.2     1  UNL1        0.2390
     18 C          62.3727   90.3457   11.1617 C.2     1  UNL1        0.0896
     19 C          63.0619   90.5152   12.4832 C.2     1  UNL1        0.0771
     20 C          62.7782   89.9491   13.8430 C.3     1  UNL1        0.0602
     21 N          63.4188   84.9222    9.9711 N.pl3   1  UNL1       -0.2128
     22 H          64.2915   84.9111    9.5156 H       1  UNL1        0.1738
     23 S          63.1075   83.8970   11.0208 S.O2    1  UNL1        0.0751
     24 O          62.0238   84.7809   11.5629 O.2     1  UNL1       -0.1499
     25 O          64.1914   83.0130   10.4787 O.2     1  UNL1       -0.1499
     26 C          62.7964   82.8716   12.0706 C.ar    1  UNL1        0.1442
     27 C          62.8343   81.4118   11.7276 C.ar    1  UNL1        0.0234
     28 C          62.5232   80.3865   12.7773 C.ar    1  UNL1        0.0221
     29 C          62.1741   80.8209   14.1699 C.ar    1  UNL1        0.0990
     30 N          62.1361   82.2806   14.5129 N.ar    1  UNL1       -0.2409
     31 C          62.4473   83.3060   13.4632 C.ar    1  UNL1        0.1190
@<TRIPOS>BOND
     1    11    12    1
     2    12    13    2
     3    13    14    1
     4    14    15    2
     5    15    16    1
     6    16    17    2
     7    17    18    1
     8    18     9    1
     9     9    10    2
    10     9     1    1
    11     1     2   ar
    12     2     3    1
    13     2     4   ar
    14     4     5   ar
    15     5     6   ar
    16     6    21    1
    17    21    23    1
    18    23    24    2
    19    23    25    2
    20    23    26    1
    21    26    27   ar
    22    27    28   ar
    23    28    29   ar
    24    29    30   ar
    25    30    31   ar
    26     6     7   ar
    27     7     8    1
    28    18    19    2
    29    19    20    1
    30    20    12    1
    31    19    15    1
    32     7     1   ar
    33    31    26   ar
    34    21    22    1
@<TRIPOS>MOLECULE
*****
 31 34 0 0 0
SMALL
GASTEIGER

@<TRIPOS>ATOM
      1 C          63.7020   90.8335   12.8199 C.ar    1  UNL1        0.0951
      2 C          63.6012   90.6121   14.3000 C.ar    1  UNL1        0.1454
      3 F          62.4374   89.8548   14.8674 F       1  UNL1       -0.2040
      4 C          64.6641   91.1480   15.2126 C.ar    1  UNL1        0.0312
      5 C          65.8279   91.9054   14.6452 C.ar    1  UNL1        0.0204
      6 C          65.9287   92.1268   13.1649 C.ar    1  UNL1        0.0924
      7 C          64.8658   91.5908   12.2523 C.ar    1  UNL1        0.1598
      8 F          64.9666   91.8122   10.7722 F       1  UNL1       -0.2026
      9 C          62.6390   90.2976   11.9072 C.2     1  UNL1        0.2036
     10 O          61.6892   91.2391   11.2279 O.2     1  UNL1       -0.2863
     11 C          59.3015   88.3397    7.4553 C.3     1  UNL1        0.0307
     12 C          60.1668   87.7843    8.5474 C.2     1  UNL1        0.0074
     13 C          60.3400   86.3008    8.6859 C.2     1  UNL1        0.2278
     14 N          61.2053   85.7454    9.7780 N.2     1  UNL1       -0.0314
     15 C          61.8974   86.6735   10.7317 C.2     1  UNL1        0.3720
     16 N          62.8061   86.4198   11.8979 N.2     1  UNL1       -0.0307
     17 C          63.1945   87.7465   12.4801 C.2     1  UNL1        0.2390
     18 C          62.5259   88.8202   11.6739 C.2     1  UNL1        0.0896
     19 C          61.7242   88.1570   10.5933 C.2     1  UNL1        0.0771
     20 C          60.8589   88.7124    9.5011 C.3     1  UNL1        0.0602
     21 N          67.0925   92.8841   12.5975 N.pl3   1  UNL1       -0.2128
     22 H          67.9990   92.7295   12.9491 H       1  UNL1        0.1738
     23 S          66.8752   93.8770   11.4944 S.O2    1  UNL1        0.0751
     24 O          67.6327   92.9926   10.5490 O.2     1  UNL1       -0.1499
     25 O          66.1176   94.7615   12.4397 O.2     1  UNL1       -0.1499
     26 C          66.6578   94.8700   10.3912 C.ar    1  UNL1        0.1442
     27 C          67.6345   94.9556    9.2561 C.ar    1  UNL1        0.0234
     28 C          67.4172   95.9485    8.1530 C.ar    1  UNL1        0.0221
     29 C          66.2232   96.8559    8.1850 C.ar    1  UNL1        0.0990
     30 N          65.2464   96.7703    9.3202 N.ar    1  UNL1       -0.2409
     31 C          65.4637   95.7773   10.4233 C.ar    1  UNL1        0.1190
@<TRIPOS>BOND
     1    11    12    1
     2    12    13    2
     3    13    14    1
     4    14    15    2
     5    15    16    1
     6    16    17    2
     7    17    18    1
     8    18     9    1
     9     9    10    2
    10     9     1    1
    11     1     2   ar
    12     2     3    1
    13     2     4   ar
    14     4     5   ar
    15     5     6   ar
    16     6    21    1
    17    21    23    1
    18    23    24    2
    19    23    25    2
    20    23    26    1
    21    26    27   ar
    22    27    28   ar
    23    28    29   ar
    24    29    30   ar
    25    30    31   ar
    26     6     7   ar
    27     7     8    1
    28    18    19    2
    29    19    20    1
    30    20    12    1
    31    19    15    1
    32     7     1   ar
    33    31    26   ar
    34    21    22    1
@<TRIPOS>MOLECULE
*****
 31 34 0 0 0
SMALL
GASTEIGER

@<TRIPOS>ATOM
      1 C          65.1482   91.6098   13.2530 C.ar    1  UNL1        0.0951
      2 C          65.4210   90.5705   14.2996 C.ar    1  UNL1        0.1454
      3 F          66.6582   90.6621   15.1428 F       1  UNL1       -0.2040
      4 C          64.4567   89.4397   14.5031 C.ar    1  UNL1        0.0312
      5 C          63.2195   89.3482   13.6599 C.ar    1  UNL1        0.0204
      6 C          62.9467   90.3875   12.6132 C.ar    1  UNL1        0.0924
      7 C          63.9111   91.5183   12.4097 C.ar    1  UNL1        0.1598
      8 F          63.6382   92.5575   11.3630 F       1  UNL1       -0.2026
      9 C          66.1126   92.7405   13.0495 C.2     1  UNL1        0.2036
     10 O          66.2645   93.7958   14.1047 O.2     1  UNL1       -0.2863
     11 C          64.8045   96.8533    9.0288 C.3     1  UNL1        0.0307
     12 C          65.7891   95.7389    9.2257 C.2     1  UNL1        0.0074
     13 C          66.8194   95.4537    8.1735 C.2     1  UNL1        0.2278
     14 N          67.8039   94.3393    8.3704 N.2     1  UNL1       -0.0314
     15 C          67.7582   93.5101    9.6194 C.2     1  UNL1        0.3720
     16 N          68.5920   92.3547   10.0883 N.2     1  UNL1       -0.0307
     17 C          68.0771   91.9258   11.4303 C.2     1  UNL1        0.2390
     18 C          66.9250   92.8161   11.7908 C.2     1  UNL1        0.0896
     19 C          66.7279   93.7952   10.6716 C.2     1  UNL1        0.0771
     20 C          65.7433   94.9096   10.4747 C.3     1  UNL1        0.0602
     21 N          61.7095   90.2959   11.7700 N.pl3   1  UNL1       -0.2128
     22 H          61.0158   90.9913   11.8367 H       1  UNL1        0.1738
     23 S          61.5293   89.1449   10.8252 S.O2    1  UNL1        0.0751
     24 O          60.3277   88.6952   11.6021 O.2     1  UNL1       -0.1499
     25 O          62.7310   89.5945   10.0482 O.2     1  UNL1       -0.1499
     26 C          61.3491   87.9938    9.8803 C.ar    1  UNL1        0.1442
     27 C          62.4777   87.0346    9.6432 C.ar    1  UNL1        0.0234
     28 C          62.2976   85.8835    8.6983 C.ar    1  UNL1        0.0221
     29 C          60.9889   85.6918    7.9907 C.ar    1  UNL1        0.0990
     30 N          59.8604   86.6510    8.2279 N.ar    1  UNL1       -0.2409
     31 C          60.0405   87.8020    9.1727 C.ar    1  UNL1        0.1190
@<TRIPOS>BOND
     1    11    12    1
     2    12    13    2
     3    13    14    1
     4    14    15    2
     5    15    16    1
     6    16    17    2
     7    17    18    1
     8    18     9    1
     9     9    10    2
    10     9     1    1
    11     1     2   ar
    12     2     3    1
    13     2     4   ar
    14     4     5   ar
    15     5     6   ar
    16     6    21    1
    17    21    23    1
    18    23    24    2
    19    23    25    2
    20    23    26    1
    21    26    27   ar
    22    27    28   ar
    23    28    29   ar
    24    29    30   ar
    25    30    31   ar
    26     6     7   ar
    27     7     8    1
    28    18    19    2
    29    19    20    1
    30    20    12    1
    31    19    15    1
    32     7     1   ar
    33    31    26   ar
    34    21    22    1
@<TRIPOS>MOLECULE
*****
 31 34 0 0 0
SMALL
GASTEIGER

@<TRIPOS>ATOM
      1 C          61.8917   86.4276   10.2502 C.ar    1  UNL1        0.0951
      2 C          60.8415   86.5552    9.1869 C.ar    1  UNL1        0.1454
      3 F          60.6472   85.4526    8.1886 F       1  UNL1       -0.2040
      4 C          59.9857   87.7853    9.1217 C.ar    1  UNL1        0.0312
      5 C          60.1800   88.8880   10.1200 C.ar    1  UNL1        0.0204
      6 C          61.2303   88.7603   11.1834 C.ar    1  UNL1        0.0924
      7 C          62.0861   87.5302   11.2485 C.ar    1  UNL1        0.1598
      8 F          63.1363   87.4027   12.3119 F       1  UNL1       -0.2026
      9 C          62.7476   85.1974   10.3153 C.2     1  UNL1        0.2036
     10 O          63.6165   84.8258    9.1505 O.2     1  UNL1       -0.2863
     11 C          62.9310   79.3313    9.7263 C.3     1  UNL1        0.0307
     12 C          62.8689   80.3553   10.8207 C.2     1  UNL1        0.0074
     13 C          62.8377   79.9188   12.2553 C.2     1  UNL1        0.2278
     14 N          62.7757   80.9427   13.3497 N.2     1  UNL1       -0.0314
     15 C          62.7447   82.4032   13.0094 C.2     1  UNL1        0.3720
     16 N          62.6840   83.6326   13.8667 N.2     1  UNL1       -0.0307
     17 C          62.6777   84.8289   12.9619 C.2     1  UNL1        0.2390
     18 C          62.7345   84.3390   11.5453 C.2     1  UNL1        0.0896
     19 C          62.7759   82.8398   11.5747 C.2     1  UNL1        0.0771
     20 C          62.8380   81.8158   10.4803 C.3     1  UNL1        0.0602
     21 N          61.4246   89.8629   12.1816 N.pl3   1  UNL1       -0.2128
     22 H          60.6637   90.1788   12.7206 H       1  UNL1        0.1738
     23 S          62.7783   90.4844   12.3587 S.O2    1  UNL1        0.0751
     24 O          62.7305   90.9907   10.9476 O.2     1  UNL1       -0.1499
     25 O          62.8262   89.9780   13.7698 O.2     1  UNL1       -0.1499
     26 C          64.1321   91.1058   12.5358 C.ar    1  UNL1        0.1442
     27 C          64.8854   90.9094   13.8179 C.ar    1  UNL1        0.0234
     28 C          66.2391   91.5308   13.9951 C.ar    1  UNL1        0.0221
     29 C          66.8394   92.3485   12.8902 C.ar    1  UNL1        0.0990
     30 N          66.0861   92.5449   11.6081 N.ar    1  UNL1       -0.2409
     31 C          64.7324   91.9236   11.4309 C.ar    1  UNL1        0.1190
@<TRIPOS>BOND
     1    11    12    1
     2    12    13    2
     3    13    14    1
     4    14    15    2
     5    15    16    1
     6    16    17    2
     7    17    18    1
     8    18     9    1
     9     9    10    2
    10     9     1    1
    11     1     2   ar
    12     2     3    1
    13     2     4   ar
    14     4     5   ar
    15     5     6   ar
    16     6    21    1
    17    21    23    1
    18    23    24    2
    19    23    25    2
    20    23    26    1
    21    26    27   ar
    22    27    28   ar
    23    28    29   ar
    24    29    30   ar
    25    30    31   ar
    26     6     7   ar
    27     7     8    1
    28    18    19    2
    29    19    20    1
    30    20    12    1
    31    19    15    1
    32     7     1   ar
    33    31    26   ar
    34    21    22    1
@<TRIPOS>MOLECULE
*****
 31 34 0 0 0
SMALL
GASTEIGER

@<TRIPOS>ATOM
      1 C          64.0106   88.4215   15.3353 C.ar    1  UNL1        0.0951
      2 C          63.1296   88.8966   16.4524 C.ar    1  UNL1        0.1454
      3 F          62.8241   90.3581   16.5969 F       1  UNL1       -0.2040
      4 C          62.5539   87.9104   17.4250 C.ar    1  UNL1        0.0312
      5 C          62.8594   86.4489   17.2805 C.ar    1  UNL1        0.0204
      6 C          63.7405   85.9738   16.1634 C.ar    1  UNL1        0.0924
      7 C          64.3161   86.9601   15.1908 C.ar    1  UNL1        0.1598
      8 F          65.1972   86.4849   14.0737 F       1  UNL1       -0.2026
      9 C          64.5863   89.4078   14.3627 C.2     1  UNL1        0.2036
     10 O          65.9565   89.9737   14.5909 O.2     1  UNL1       -0.2863
     11 C          62.0048   85.2767   11.0368 C.3     1  UNL1        0.0307
     12 C          62.1414   86.7698   11.0794 C.2     1  UNL1        0.0074
     13 C          61.4810   87.6136   10.0298 C.2     1  UNL1        0.2278
     14 N          61.6176   89.1068   10.0724 N.2     1  UNL1       -0.0314
     15 C          62.4145   89.7562   11.1647 C.2     1  UNL1        0.3720
     16 N          62.7231   91.1933   11.4635 N.2     1  UNL1       -0.0307
     17 C          63.5742   91.2378   12.6979 C.2     1  UNL1        0.2390
     18 C          63.7916   89.8281   13.1620 C.2     1  UNL1        0.0896
     19 C          63.0749   88.9124   12.2143 C.2     1  UNL1        0.0771
     20 C          62.9384   87.4192   12.1717 C.3     1  UNL1        0.0602
     21 N          64.0460   84.5124   16.0189 N.pl3   1  UNL1       -0.2128
     22 H          64.3319   83.9894   16.8025 H       1  UNL1        0.1738
     23 S          63.9158   83.8477   14.6806 S.O2    1  UNL1        0.0751
     24 O          62.4227   83.9583   14.7707 O.2     1  UNL1       -0.1499
     25 O          65.4090   83.7370   14.5903 O.2     1  UNL1       -0.1499
     26 C          63.7857   83.1829   13.3421 C.ar    1  UNL1        0.1442
     27 C          62.6553   82.2313   13.0841 C.ar    1  UNL1        0.0234
     28 C          62.5252   81.5666   11.7458 C.ar    1  UNL1        0.0221
     29 C          63.5254   81.8535   10.6654 C.ar    1  UNL1        0.0990
     30 N          64.6558   82.8051   10.9234 N.ar    1  UNL1       -0.2409
     31 C          64.7860   83.4698   12.2617 C.ar    1  UNL1        0.1190
@<TRIPOS>BOND
     1    11    12    1
     2    12    13    2
     3    13    14    1
     4    14    15    2
     5    15    16    1
     6    16    17    2
     7    17    18    1
     8    18     9    1
     9     9    10    2
    10     9     1    1
    11     1     2   ar
    12     2     3    1
    13     2     4   ar
    14     4     5   ar
    15     5     6   ar
    16     6    21    1
    17    21    23    1
    18    23    24    2
    19    23    25    2
    20    23    26    1
    21    26    27   ar
    22    27    28   ar
    23    28    29   ar
    24    29    30   ar
    25    30    31   ar
    26     6     7   ar
    27     7     8    1
    28    18    19    2
    29    19    20    1
    30    20    12    1
    31    19    15    1
    32     7     1   ar
    33    31    26   ar
    34    21    22    1
@<TRIPOS>MOLECULE
*****
 31 34 0 0 0
SMALL
GASTEIGER

@<TRIPOS>ATOM
      1 C          63.9770   86.8861   15.2555 C.ar    1  UNL1        0.0951
      2 C          63.3307   86.4427   16.5345 C.ar    1  UNL1        0.1454
      3 F          63.2159   84.9806   16.8491 F       1  UNL1       -0.2040
      4 C          62.7994   87.4614   17.4988 C.ar    1  UNL1        0.0312
      5 C          62.9143   88.9235   17.1842 C.ar    1  UNL1        0.0204
      6 C          63.5605   89.3669   15.9051 C.ar    1  UNL1        0.0924
      7 C          64.0919   88.3482   14.9408 C.ar    1  UNL1        0.1598
      8 F          64.7381   88.7917   13.6619 F       1  UNL1       -0.2026
      9 C          64.5083   85.8674   14.2912 C.2     1  UNL1        0.2036
     10 O          65.9245   85.3878   14.4115 O.2     1  UNL1       -0.2863
     11 C          62.1253   89.6084   10.4030 C.3     1  UNL1        0.0307
     12 C          62.1374   88.1368   10.6933 C.2     1  UNL1        0.0074
     13 C          61.3578   87.1946    9.8247 C.2     1  UNL1        0.2278
     14 N          61.3699   85.7230   10.1150 N.2     1  UNL1       -0.0314
     15 C          62.1615   85.1936   11.2739 C.2     1  UNL1        0.3720
     16 N          62.3620   83.8037   11.8012 N.2     1  UNL1       -0.0307
     17 C          63.2655   83.8870   12.9957 C.2     1  UNL1        0.2390
     18 C          63.6234   85.3283   13.2066 C.2     1  UNL1        0.0896
     19 C          62.9411   86.1358   12.1424 C.2     1  UNL1        0.0771
     20 C          62.9291   87.6074   11.8521 C.3     1  UNL1        0.0602
     21 N          63.6754   90.8290   15.5905 N.pl3   1  UNL1       -0.2128
     22 H          63.2144   91.4915   16.1542 H       1  UNL1        0.1738
     23 S          64.4927   91.2817   14.4171 S.O2    1  UNL1        0.0751
     24 O          63.2662   91.2592   13.5540 O.2     1  UNL1       -0.1499
     25 O          65.7193   91.3043   15.2801 O.2     1  UNL1       -0.1499
     26 C          65.3101   91.7345   13.2436 C.ar    1  UNL1        0.1442
     27 C          64.6594   91.9266   11.9058 C.ar    1  UNL1        0.0234
     28 C          65.4767   92.3793   10.7323 C.ar    1  UNL1        0.0221
     29 C          66.9447   92.6399   10.8966 C.ar    1  UNL1        0.0990
     30 N          67.5954   92.4478   12.2344 N.ar    1  UNL1       -0.2409
     31 C          66.7781   91.9951   13.4079 C.ar    1  UNL1        0.1190
@<TRIPOS>BOND
     1    11    12    1
     2    12    13    2
     3    13    14    1
     4    14    15    2
     5    15    16    1
     6    16    17    2
     7    17    18    1
     8    18     9    1
     9     9    10    2
    10     9     1    1
    11     1     2   ar
    12     2     3    1
    13     2     4   ar
    14     4     5   ar
    15     5     6   ar
    16     6    21    1
    17    21    23    1
    18    23    24    2
    19    23    25    2
    20    23    26    1
    21    26    27   ar
    22    27    28   ar
    23    28    29   ar
    24    29    30   ar
    25    30    31   ar
    26     6     7   ar
    27     7     8    1
    28    18    19    2
    29    19    20    1
    30    20    12    1
    31    19    15    1
    32     7     1   ar
    33    31    26   ar
    34    21    22    1
@<TRIPOS>MOLECULE
*****
 31 34 0 0 0
SMALL
GASTEIGER

@<TRIPOS>ATOM
      1 C          64.0099   84.6098   13.7912 C.ar    1  UNL1        0.0951
      2 C          63.8764   83.1247   13.9537 C.ar    1  UNL1        0.1454
      3 F          64.5004   82.4403   15.1337 F       1  UNL1       -0.2040
      4 C          63.1189   82.3239   12.9364 C.ar    1  UNL1        0.0312
      5 C          62.4949   83.0082   11.7564 C.ar    1  UNL1        0.0204
      6 C          62.6284   84.4935   11.5939 C.ar    1  UNL1        0.0924
      7 C          63.3859   85.2943   12.6112 C.ar    1  UNL1        0.1598
      8 F          63.5193   86.7794   12.4486 F       1  UNL1       -0.2026
      9 C          64.7673   85.4106   14.8085 C.2     1  UNL1        0.2036
     10 O          66.2503   85.2340   14.9492 O.2     1  UNL1       -0.2863
     11 C          65.1219   91.1717   13.5937 C.3     1  UNL1        0.0307
     12 C          64.4744   90.2673   14.6000 C.2     1  UNL1        0.0074
     13 C          63.6276   90.8469   15.6940 C.2     1  UNL1        0.2278
     14 N          62.9801   89.9425   16.7004 N.2     1  UNL1       -0.0314
     15 C          63.1794   88.4584   16.6127 C.2     1  UNL1        0.3720
     16 N          62.6717   87.3260   17.4552 N.2     1  UNL1       -0.0307
     17 C          63.2047   86.0464   16.8819 C.2     1  UNL1        0.2390
     18 C          64.0419   86.3880   15.6851 C.2     1  UNL1        0.0896
     19 C          64.0263   87.8788   15.5187 C.2     1  UNL1        0.0771
     20 C          64.6738   88.7832   14.5124 C.3     1  UNL1        0.0602
     21 N          62.0044   85.1778   10.4140 N.pl3   1  UNL1       -0.2128
     22 H          61.7991   84.6648    9.5992 H       1  UNL1        0.1738
     23 S          61.6932   86.6439   10.4754 S.O2    1  UNL1        0.0751
     24 O          60.8245   86.4093   11.6754 O.2     1  UNL1       -0.1499
     25 O          62.5620   86.8786    9.2753 O.2     1  UNL1       -0.1499
     26 C          61.3821   88.1101   10.5368 C.ar    1  UNL1        0.1442
     27 C          62.4472   89.1167   10.2172 C.ar    1  UNL1        0.0234
     28 C          62.1361   90.5828   10.2785 C.ar    1  UNL1        0.0221
     29 C          60.7599   91.0423   10.6595 C.ar    1  UNL1        0.0990
     30 N          59.6948   90.0356   10.9790 N.ar    1  UNL1       -0.2409
     31 C          60.0059   88.5695   10.9177 C.ar    1  UNL1        0.1190
@<TRIPOS>BOND
     1    11    12    1
     2    12    13    2
     3    13    14    1
     4    14    15    2
     5    15    16    1
     6    16    17    2
     7    17    18    1
     8    18     9    1
     9     9    10    2
    10     9     1    1
    11     1     2   ar
    12     2     3    1
    13     2     4   ar
    14     4     5   ar
    15     5     6   ar
    16     6    21    1
    17    21    23    1
    18    23    24    2
    19    23    25    2
    20    23    26    1
    21    26    27   ar
    22    27    28   ar
    23    28    29   ar
    24    29    30   ar
    25    30    31   ar
    26     6     7   ar
    27     7     8    1
    28    18    19    2
    29    19    20    1
    30    20    12    1
    31    19    15    1
    32     7     1   ar
    33    31    26   ar
    34    21    22    1
@<TRIPOS>MOLECULE
*****
 31 34 0 0 0
SMALL
GASTEIGER

@<TRIPOS>ATOM
      1 C          63.9241   87.0029   15.3886 C.ar    1  UNL1        0.0951
      2 C          63.5678   87.1808   16.8347 C.ar    1  UNL1        0.1454
      3 F          63.8173   86.0694   17.8107 F       1  UNL1       -0.2040
      4 C          62.9619   88.4700   17.3048 C.ar    1  UNL1        0.0312
      5 C          62.7124   89.5813   16.3288 C.ar    1  UNL1        0.0204
      6 C          63.0688   89.4034   14.8826 C.ar    1  UNL1        0.0924
      7 C          63.6746   88.1143   14.4124 C.ar    1  UNL1        0.1598
      8 F          64.0309   87.9365   12.9663 F       1  UNL1       -0.2026
      9 C          64.5299   85.7138   14.9184 C.2     1  UNL1        0.2036
     10 O          65.9983   85.6395   14.6212 O.2     1  UNL1       -0.2863
     11 C          64.4731   82.9489    9.7084 C.3     1  UNL1        0.0307
     12 C          63.8395   82.8211   11.0620 C.2     1  UNL1        0.0074
     13 C          62.8756   81.7051   11.3365 C.2     1  UNL1        0.2278
     14 N          62.2420   81.5772   12.6901 N.2     1  UNL1       -0.0314
     15 C          62.5722   82.5654   13.7691 C.2     1  UNL1        0.3720
     16 N          62.1078   82.6930   15.1897 N.2     1  UNL1       -0.0307
     17 C          62.7846   83.8879   15.7931 C.2     1  UNL1        0.2390
     18 C          63.6673   84.4988   14.7455 C.2     1  UNL1        0.0896
     19 C          63.5360   83.6815   13.4946 C.2     1  UNL1        0.0771
     20 C          64.1697   83.8093   12.1410 C.3     1  UNL1        0.0602
     21 N          62.8193   90.5148   13.9065 N.pl3   1  UNL1       -0.2128
     22 H          61.9009   90.8297   13.7434 H       1  UNL1        0.1738
     23 S          63.9690   91.1464   13.1791 S.O2    1  UNL1        0.0751
     24 O          64.5323   91.6246   14.4845 O.2     1  UNL1       -0.1499
     25 O          63.4058   90.6682   11.8737 O.2     1  UNL1       -0.1499
     26 C          65.1188   91.7780   12.4516 C.ar    1  UNL1        0.1442
     27 C          64.9609   92.1977   11.0202 C.ar    1  UNL1        0.0234
     28 C          66.1106   92.8293   10.2927 C.ar    1  UNL1        0.0221
     29 C          67.4182   93.0411   10.9966 C.ar    1  UNL1        0.0990
     30 N          67.5761   92.6214   12.4280 N.ar    1  UNL1       -0.2409
     31 C          66.4264   91.9898   13.1555 C.ar    1  UNL1        0.1190
@<TRIPOS>BOND
     1    11    12    1
     2    12    13    2
     3    13    14    1
     4    14    15    2
     5    15    16    1
     6    16    17    2
     7    17    18    1
     8    18     9    1
     9     9    10    2
    10     9     1    1
    11     1     2   ar
    12     2     3    1
    13     2     4   ar
    14     4     5   ar
    15     5     6   ar
    16     6    21    1
    17    21    23    1
    18    23    24    2
    19    23    25    2
    20    23    26    1
    21    26    27   ar
    22    27    28   ar
    23    28    29   ar
    24    29    30   ar
    25    30    31   ar
    26     6     7   ar
    27     7     8    1
    28    18    19    2
    29    19    20    1
    30    20    12    1
    31    19    15    1
    32     7     1   ar
    33    31    26   ar
    34    21    22    1
@<TRIPOS>MOLECULE
*****
 31 34 0 0 0
SMALL
GASTEIGER

@<TRIPOS>ATOM
      1 C          61.8783   86.1903   10.0293 C.ar    1  UNL1        0.0951
      2 C          60.7376   86.2219    9.0558 C.ar    1  UNL1        0.1454
      3 F          60.5769   85.1183    8.0527 F       1  UNL1       -0.2040
      4 C          59.7576   87.3571    9.0854 C.ar    1  UNL1        0.0312
      5 C          59.9183   88.4607   10.0885 C.ar    1  UNL1        0.0204
      6 C          61.0591   88.4291   11.0620 C.ar    1  UNL1        0.0924
      7 C          62.0391   87.2939   11.0324 C.ar    1  UNL1        0.1598
      8 F          63.1798   87.2623   12.0059 F       1  UNL1       -0.2026
      9 C          62.8583   85.0551    9.9997 C.2     1  UNL1        0.2036
     10 O          63.8827   84.9769    8.9067 O.2     1  UNL1       -0.2863
     11 C          64.3649   86.4725   15.5235 C.3     1  UNL1        0.0307
     12 C          63.9024   85.2725   14.7514 C.2     1  UNL1        0.0074
     13 C          63.7170   83.9576   15.4490 C.2     1  UNL1        0.2278
     14 N          63.2545   82.7576   14.6768 N.2     1  UNL1       -0.0314
     15 C          62.9774   82.8726   13.2072 C.2     1  UNL1        0.3720
     16 N          62.5140   81.8705   12.1918 N.2     1  UNL1       -0.0307
     17 C          62.4130   82.5661   10.8666 C.2     1  UNL1        0.2390
     18 C          62.8139   83.9981   11.0630 C.2     1  UNL1        0.0896
     19 C          63.1628   84.1875   12.5096 C.2     1  UNL1        0.0771
     20 C          63.6253   85.3874   13.2818 C.3     1  UNL1        0.0602
     21 N          61.2197   89.5327   12.0651 N.pl3   1  UNL1       -0.2128
     22 H          60.4783   89.7577   12.6724 H       1  UNL1        0.1738
     23 S          62.5101   90.2935   12.1429 S.O2    1  UNL1        0.0751
     24 O          62.7124   89.8070   13.5473 O.2     1  UNL1       -0.1499
     25 O          62.3080   90.7800   10.7385 O.2     1  UNL1       -0.1499
     26 C          63.8006   91.0543   12.2207 C.ar    1  UNL1        0.1442
     27 C          64.5793   91.0811   13.5024 C.ar    1  UNL1        0.0234
     28 C          65.8697   91.8419   13.5802 C.ar    1  UNL1        0.0221
     29 C          66.3814   92.5759   12.3763 C.ar    1  UNL1        0.0990
     30 N          65.6027   92.5491   11.0946 N.ar    1  UNL1       -0.2409
     31 C          64.3123   91.7883   11.0167 C.ar    1  UNL1        0.1190
@<TRIPOS>BOND
     1    11    12    1
     2    12    13    2
     3    13    14    1
     4    14    15    2
     5    15    16    1
     6    16    17    2
     7    17    18    1
     8    18     9    1
     9     9    10    2
    10     9     1    1
    11     1     2   ar
    12     2     3    1
    13     2     4   ar
    14     4     5   ar
    15     5     6   ar
    16     6    21    1
    17    21    23    1
    18    23    24    2
    19    23    25    2
    20    23    26    1
    21    26    27   ar
    22    27    28   ar
    23    28    29   ar
    24    29    30   ar
    25    30    31   ar
    26     6     7   ar
    27     7     8    1
    28    18    19    2
    29    19    20    1
    30    20    12    1
    31    19    15    1
    32     7     1   ar
    33    31    26   ar
    34    21    22    1
