@<TRIPOS>MOLECULE
*****
 12 13 0 0 0
SMALL
GASTEIGER

@<TRIPOS>ATOM
      1 C          61.8778   85.1424    7.4629 C.ar    1  UNL1        0.0000
      2 C          60.4658   85.6325    7.3364 C.ar    1  UNL1        0.0001
      3 C          59.9520   86.6885    8.2696 C.ar    1  UNL1        0.0030
      4 C          60.8502   87.2543    9.3294 C.ar    1  UNL1        0.0339
      5 C          62.2621   86.7642    9.4559 C.ar    1  UNL1        0.0030
      6 C          62.7759   85.7082    8.5227 C.ar    1  UNL1        0.0001
      7 C          60.3364   88.3103   10.2626 C.ar    1  UNL1        0.1406
      8 N          60.2542   89.7796    9.9720 N.ar    1  UNL1       -0.2254
      9 C          59.6816   90.4598   11.1801 C.ar    1  UNL1        0.1189
     10 C          59.4098   89.4109   12.2173 C.ar    1  UNL1        0.0945
     11 N          59.8145   88.0825   11.6503 N.ar    1  UNL1       -0.3361
     12 H          59.7491   87.2136   12.1085 H       1  UNL1        0.1674
@<TRIPOS>BOND
     1     1     2   ar
     2     2     3   ar
     3     3     4   ar
     4     4     7    1
     5     7     8   ar
     6     8     9   ar
     7     9    10   ar
     8    10    11   ar
     9     4     5   ar
    10     5     6   ar
    11     6     1   ar
    12    11     7   ar
    13    11    12    1
@<TRIPOS>MOLECULE
*****
 12 13 0 0 0
SMALL
GASTEIGER

@<TRIPOS>ATOM
      1 C          63.3254   84.1749    9.7084 C.ar    1  UNL1        0.0000
      2 C          63.0364   85.1869    8.6397 C.ar    1  UNL1        0.0001
      3 C          62.2674   86.4309    8.9730 C.ar    1  UNL1        0.0030
      4 C          61.7874   86.6629   10.3751 C.ar    1  UNL1        0.0339
      5 C          62.0765   85.6508   11.4438 C.ar    1  UNL1        0.0030
      6 C          62.8455   84.4068   11.1104 C.ar    1  UNL1        0.0001
      7 C          61.0184   87.9069   10.7085 C.ar    1  UNL1        0.1406
      8 N          61.1022   89.2165    9.9819 N.ar    1  UNL1       -0.2254
      9 C          60.1662   90.1787   10.6513 C.ar    1  UNL1        0.1189
     10 C          59.5039   89.4637   11.7916 C.ar    1  UNL1        0.0945
     11 N          60.0306   88.0597   11.8269 N.ar    1  UNL1       -0.3361
     12 H          59.7732   87.3611   12.4711 H       1  UNL1        0.1674
@<TRIPOS>BOND
     1     1     2   ar
     2     2     3   ar
     3     3     4   ar
     4     4     7    1
     5     7     8   ar
     6     8     9   ar
     7     9    10   ar
     8    10    11   ar
     9     4     5   ar
    10     5     6   ar
    11     6     1   ar
    12    11     7   ar
    13    11    12    1
@<TRIPOS>MOLECULE
*****
 12 13 0 0 0
SMALL
GASTEIGER

@<TRIPOS>ATOM
      1 C          62.7013   85.6542    8.5168 C.ar    1  UNL1        0.0000
      2 C          63.4897   84.4334    8.8885 C.ar    1  UNL1        0.0001
      3 C          63.4538   83.9173   10.2965 C.ar    1  UNL1        0.0030
      4 C          62.6295   84.6219   11.3328 C.ar    1  UNL1        0.0339
      5 C          61.8411   85.8427   10.9611 C.ar    1  UNL1        0.0030
      6 C          61.8770   86.3588    9.5531 C.ar    1  UNL1        0.0001
      7 C          62.5936   84.1058   12.7407 C.ar    1  UNL1        0.1406
      8 N          62.5322   82.6641   13.1500 N.ar    1  UNL1       -0.2254
      9 C          62.5134   82.6080   14.6488 C.ar    1  UNL1        0.1189
     10 C          62.5632   84.0152   15.1659 C.ar    1  UNL1        0.0945
     11 N          62.6127   84.9409   13.9866 N.ar    1  UNL1       -0.3361
     12 H          62.6511   85.9239   14.0239 H       1  UNL1        0.1674
@<TRIPOS>BOND
     1     1     2   ar
     2     2     3   ar
     3     3     4   ar
     4     4     7    1
     5     7     8   ar
     6     8     9   ar
     7     9    10   ar
     8    10    11   ar
     9     4     5   ar
    10     5     6   ar
    11     6     1   ar
    12    11     7   ar
    13    11    12    1
@<TRIPOS>MOLECULE
*****
 12 13 0 0 0
SMALL
GASTEIGER

@<TRIPOS>ATOM
      1 C          62.7378   85.6487    8.5259 C.ar    1  UNL1        0.0000
      2 C          61.9227   86.3662    9.5607 C.ar    1  UNL1        0.0001
      3 C          61.8744   85.8495   10.9681 C.ar    1  UNL1        0.0030
      4 C          62.6412   84.6153   11.3406 C.ar    1  UNL1        0.0339
      5 C          63.4563   83.8979   10.3058 C.ar    1  UNL1        0.0030
      6 C          63.5045   84.4146    8.8985 C.ar    1  UNL1        0.0001
      7 C          62.5929   84.0986   12.7480 C.ar    1  UNL1        0.1406
      8 N          62.5337   82.6565   13.1563 N.ar    1  UNL1       -0.2254
      9 C          62.4996   82.5999   14.6548 C.ar    1  UNL1        0.1189
     10 C          62.5378   84.0071   15.1727 C.ar    1  UNL1        0.0945
     11 N          62.5955   84.9334   13.9943 N.ar    1  UNL1       -0.3361
     12 H          62.6291   85.9166   14.0322 H       1  UNL1        0.1674
@<TRIPOS>BOND
     1     1     2   ar
     2     2     3   ar
     3     3     4   ar
     4     4     7    1
     5     7     8   ar
     6     8     9   ar
     7     9    10   ar
     8    10    11   ar
     9     4     5   ar
    10     5     6   ar
    11     6     1   ar
    12    11     7   ar
    13    11    12    1
@<TRIPOS>MOLECULE
*****
 12 13 0 0 0
SMALL
GASTEIGER

@<TRIPOS>ATOM
      1 C          64.4540   82.7316   11.8847 C.ar    1  UNL1        0.0000
      2 C          63.6601   83.4957   12.9025 C.ar    1  UNL1        0.0001
      3 C          62.7016   84.5614   12.4602 C.ar    1  UNL1        0.0030
      4 C          62.5370   84.8630   11.0002 C.ar    1  UNL1        0.0339
      5 C          63.3309   84.0990    9.9824 C.ar    1  UNL1        0.0030
      6 C          64.2894   83.0333   10.4247 C.ar    1  UNL1        0.0001
      7 C          61.5785   85.9287   10.5579 C.ar    1  UNL1        0.1406
      8 N          61.1126   86.1672    9.1522 N.ar    1  UNL1       -0.2254
      9 C          60.1638   87.3289    9.1692 C.ar    1  UNL1        0.1189
     10 C          60.0433   87.8084   10.5854 C.ar    1  UNL1        0.0945
     11 N          60.9177   86.9430   11.4436 N.ar    1  UNL1       -0.3361
     12 H          61.0369   87.0261   12.4173 H       1  UNL1        0.1674
@<TRIPOS>BOND
     1     1     2   ar
     2     2     3   ar
     3     3     4   ar
     4     4     7    1
     5     7     8   ar
     6     8     9   ar
     7     9    10   ar
     8    10    11   ar
     9     4     5   ar
    10     5     6   ar
    11     6     1   ar
    12    11     7   ar
    13    11    12    1
@<TRIPOS>MOLECULE
*****
 12 13 0 0 0
SMALL
GASTEIGER

@<TRIPOS>ATOM
      1 C          65.2484   91.3355   14.8404 C.ar    1  UNL1        0.0000
      2 C          64.6837   91.1620   13.4617 C.ar    1  UNL1        0.0001
      3 C          65.0521   92.1264   12.3735 C.ar    1  UNL1        0.0030
      4 C          65.9853   93.2643   12.6640 C.ar    1  UNL1        0.0339
      5 C          66.5500   93.4377   14.0427 C.ar    1  UNL1        0.0030
      6 C          66.1816   92.4733   15.1309 C.ar    1  UNL1        0.0001
      7 C          66.3537   94.2287   11.5758 C.ar    1  UNL1        0.1406
      8 N          67.3017   93.9613   10.4444 N.ar    1  UNL1       -0.2254
      9 C          67.3727   95.1971    9.5973 C.ar    1  UNL1        0.1189
     10 C          66.4687   96.2283   10.2050 C.ar    1  UNL1        0.0945
     11 N          65.8389   95.6297   11.4278 N.ar    1  UNL1       -0.3361
     12 H          65.1999   96.0778   12.0279 H       1  UNL1        0.1674
@<TRIPOS>BOND
     1     1     2   ar
     2     2     3   ar
     3     3     4   ar
     4     4     7    1
     5     7     8   ar
     6     8     9   ar
     7     9    10   ar
     8    10    11   ar
     9     4     5   ar
    10     5     6   ar
    11     6     1   ar
    12    11     7   ar
    13    11    12    1
@<TRIPOS>MOLECULE
*****
 12 13 0 0 0
SMALL
GASTEIGER

@<TRIPOS>ATOM
      1 C          63.3085   89.9874   12.4049 C.ar    1  UNL1        0.0000
      2 C          63.9061   91.2487   11.8555 C.ar    1  UNL1        0.0001
      3 C          65.0246   91.9294   12.5874 C.ar    1  UNL1        0.0030
      4 C          65.5454   91.3488   13.8686 C.ar    1  UNL1        0.0339
      5 C          64.9477   90.0875   14.4180 C.ar    1  UNL1        0.0030
      6 C          63.8293   89.4068   13.6861 C.ar    1  UNL1        0.0001
      7 C          66.6639   92.0295   14.6005 C.ar    1  UNL1        0.1406
      8 N          66.7650   93.4985   14.8867 N.ar    1  UNL1       -0.2254
      9 C          68.0412   93.7377   15.6378 C.ar    1  UNL1        0.1189
     10 C          68.7288   92.4165   15.8158 C.ar    1  UNL1        0.0945
     11 N          67.8776   91.3608   15.1748 N.ar    1  UNL1       -0.3361
     12 H          68.0799   90.3981   15.1374 H       1  UNL1        0.1674
@<TRIPOS>BOND
     1     1     2   ar
     2     2     3   ar
     3     3     4   ar
     4     4     7    1
     5     7     8   ar
     6     8     9   ar
     7     9    10   ar
     8    10    11   ar
     9     4     5   ar
    10     5     6   ar
    11     6     1   ar
    12    11     7   ar
    13    11    12    1
@<TRIPOS>MOLECULE
*****
 12 13 0 0 0
SMALL
GASTEIGER

@<TRIPOS>ATOM
      1 C          63.3397   90.2006   12.6154 C.ar    1  UNL1        0.0000
      2 C          63.0734   90.5517   11.1816 C.ar    1  UNL1        0.0001
      3 C          63.8750   91.6281   10.5117 C.ar    1  UNL1        0.0030
      4 C          64.9430   92.3533   11.2755 C.ar    1  UNL1        0.0339
      5 C          65.2093   92.0021   12.7093 C.ar    1  UNL1        0.0030
      6 C          64.4076   90.9258   13.3792 C.ar    1  UNL1        0.0001
      7 C          65.7446   93.4297   10.6056 C.ar    1  UNL1        0.1406
      8 N          67.0921   93.2587    9.9692 N.ar    1  UNL1       -0.2254
      9 C          67.5198   94.5894    9.4247 C.ar    1  UNL1        0.1189
     10 C          66.4366   95.5827    9.7247 C.ar    1  UNL1        0.0945
     11 N          65.3395   94.8660   10.4545 N.ar    1  UNL1       -0.3361
     12 H          64.5008   95.2678   10.7776 H       1  UNL1        0.1674
@<TRIPOS>BOND
     1     1     2   ar
     2     2     3   ar
     3     3     4   ar
     4     4     7    1
     5     7     8   ar
     6     8     9   ar
     7     9    10   ar
     8    10    11   ar
     9     4     5   ar
    10     5     6   ar
    11     6     1   ar
    12    11     7   ar
    13    11    12    1
@<TRIPOS>MOLECULE
*****
 12 13 0 0 0
SMALL
GASTEIGER

@<TRIPOS>ATOM
      1 C          63.4948   81.6501   10.7259 C.ar    1  UNL1        0.0000
      2 C          62.7073   81.1686   11.9082 C.ar    1  UNL1        0.0001
      3 C          62.6293   82.0074   13.1493 C.ar    1  UNL1        0.0030
      4 C          63.3388   83.3276   13.2081 C.ar    1  UNL1        0.0339
      5 C          64.1263   83.8091   12.0258 C.ar    1  UNL1        0.0030
      6 C          64.2044   82.9703   10.7847 C.ar    1  UNL1        0.0001
      7 C          63.2608   84.1664   14.4492 C.ar    1  UNL1        0.1406
      8 N          62.0170   84.4727   15.2297 N.ar    1  UNL1       -0.2254
      9 C          62.4003   85.3418   16.3906 C.ar    1  UNL1        0.1189
     10 C          63.8811   85.5727   16.3276 C.ar    1  UNL1        0.0945
     11 N          64.4129   84.8463   15.1278 N.ar    1  UNL1       -0.3361
     12 H          65.3530   84.8203   14.8368 H       1  UNL1        0.1674
@<TRIPOS>BOND
     1     1     2   ar
     2     2     3   ar
     3     3     4   ar
     4     4     7    1
     5     7     8   ar
     6     8     9   ar
     7     9    10   ar
     8    10    11   ar
     9     4     5   ar
    10     5     6   ar
    11     6     1   ar
    12    11     7   ar
    13    11    12    1
