@<TRIPOS>MOLECULE
*****
 22 24 0 0 0
SMALL
GASTEIGER

@<TRIPOS>ATOM
      1 C          62.9698   85.2764   11.9746 C.ar    1  UNL1       -0.0144
      2 C          63.4948   85.9982   13.1801 C.ar    1  UNL1        0.0051
      3 S          63.8247   84.9747   14.2259 S.2     1  UNL1       -0.0915
      4 C          63.5035   83.6204   13.6667 C.ar    1  UNL1        0.0288
      5 C          63.6240   82.2415   14.2447 C.ar    1  UNL1        0.0065
      6 C          63.2161   81.0491   13.4313 C.ar    1  UNL1        0.0005
      7 C          62.6877   81.2355   12.0399 C.ar    1  UNL1        0.0000
      8 C          62.5673   82.6144   11.4618 C.ar    1  UNL1        0.0002
      9 C          62.9752   83.8068   12.2753 C.ar    1  UNL1        0.0025
     10 C          62.7931   85.2359    9.3827 C.3     1  UNL1        0.0110
     11 C          62.5187   85.9124   10.6932 C.3     1  UNL1        0.0627
     12 C          61.7931   87.2249   10.7221 C.ar    1  UNL1        0.0627
     13 C          62.3524   88.4074    9.9880 C.ar    1  UNL1        0.0151
     14 C          61.6269   89.7200   10.0169 C.ar    1  UNL1        0.0028
     15 C          60.3420   89.8500   10.7800 C.ar    1  UNL1        0.0207
     16 C          59.7827   88.6675   11.5140 C.ar    1  UNL1        0.0985
     17 N          60.5082   87.3550   11.4851 N.ar    1  UNL1       -0.2478
     18 C          63.6608   87.4827   13.3160 C.3     1  UNL1        0.0499
     19 C          64.2867   88.0574   14.5521 C.3     1  UNL1        0.0774
     20 N          63.6698   89.2505   15.2199 N.3     1  UNL1       -0.2700
     21 C          63.5972   90.5617   14.4949 C.3     1  UNL1        0.0897
     22 C          63.1255   89.1324   16.6126 C.3     1  UNL1        0.0897
@<TRIPOS>BOND
     1    11    10    1
     2    11    12    1
     3    12    13   ar
     4    13    14   ar
     5    14    15   ar
     6    15    16   ar
     7    16    17   ar
     8    11     1    1
     9     1     2   ar
    10     2    18    1
    11    18    19    1
    12    19    20    1
    13    20    21    1
    14    20    22    1
    15     2     3   ar
    16     3     4   ar
    17     4     5   ar
    18     5     6   ar
    19     6     7   ar
    20     7     8   ar
    21     8     9   ar
    22    17    12   ar
    23     9     1   ar
    24     9     4   ar
@<TRIPOS>MOLECULE
*****
 22 24 0 0 0
SMALL
GASTEIGER

@<TRIPOS>ATOM
      1 C          61.4289   88.1684   10.8375 C.ar    1  UNL1       -0.0144
      2 C          62.2015   86.9355   11.2022 C.ar    1  UNL1        0.0051
      3 S          61.9641   85.9075   10.1360 S.2     1  UNL1       -0.0915
      4 C          61.0448   86.5049    9.1124 C.ar    1  UNL1        0.0288
      5 C          60.4661   85.9571    7.8416 C.ar    1  UNL1        0.0065
      6 C          59.5567   86.8067    7.0043 C.ar    1  UNL1        0.0005
      7 C          59.2259   88.2040    7.4378 C.ar    1  UNL1        0.0000
      8 C          59.8045   88.7519    8.7086 C.ar    1  UNL1        0.0002
      9 C          60.7140   87.9023    9.5459 C.ar    1  UNL1        0.0025
     10 C          60.1114   89.8503   12.3160 C.3     1  UNL1        0.0110
     11 C          61.3797   89.4436   11.6259 C.3     1  UNL1        0.0627
     12 C          62.5987   90.3120   11.7243 C.ar    1  UNL1        0.0627
     13 C          63.1062   91.0327   10.5105 C.ar    1  UNL1        0.0151
     14 C          64.3252   91.9012   10.6088 C.ar    1  UNL1        0.0028
     15 C          65.0368   92.0490   11.9210 C.ar    1  UNL1        0.0207
     16 C          64.5294   91.3284   13.1347 C.ar    1  UNL1        0.0985
     17 N          63.3104   90.4599   13.0364 N.ar    1  UNL1       -0.2478
     18 C          63.0607   86.7613   12.4193 C.3     1  UNL1        0.0499
     19 C          63.3011   85.3901   12.9777 C.3     1  UNL1        0.0774
     20 N          63.2844   85.1709   14.4615 N.3     1  UNL1       -0.2700
     21 C          62.3779   84.1342   15.0563 C.3     1  UNL1        0.0897
     22 C          64.1741   85.9882   15.3504 C.3     1  UNL1        0.0897
@<TRIPOS>BOND
     1    11    10    1
     2    11    12    1
     3    12    13   ar
     4    13    14   ar
     5    14    15   ar
     6    15    16   ar
     7    16    17   ar
     8    11     1    1
     9     1     2   ar
    10     2    18    1
    11    18    19    1
    12    19    20    1
    13    20    21    1
    14    20    22    1
    15     2     3   ar
    16     3     4   ar
    17     4     5   ar
    18     5     6   ar
    19     6     7   ar
    20     7     8   ar
    21     8     9   ar
    22    17    12   ar
    23     9     1   ar
    24     9     4   ar
@<TRIPOS>MOLECULE
*****
 22 24 0 0 0
SMALL
GASTEIGER

@<TRIPOS>ATOM
      1 C          63.7321   90.5033   13.8298 C.ar    1  UNL1       -0.0144
      2 C          62.6983   90.3060   12.7610 C.ar    1  UNL1        0.0051
      3 S          63.1926   90.9697   11.5099 S.2     1  UNL1       -0.0915
      4 C          64.5319   91.5772   11.8055 C.ar    1  UNL1        0.0288
      5 C          65.4908   92.3555   10.9544 C.ar    1  UNL1        0.0065
      6 C          66.7832   92.8457   11.5370 C.ar    1  UNL1        0.0005
      7 C          67.1166   92.5574   12.9708 C.ar    1  UNL1        0.0000
      8 C          66.1577   91.7791   13.8220 C.ar    1  UNL1        0.0002
      9 C          64.8653   91.2889   13.2393 C.ar    1  UNL1        0.0025
     10 C          63.5093   90.9755   16.3749 C.3     1  UNL1        0.0110
     11 C          63.6476   90.0028   15.2413 C.3     1  UNL1        0.0627
     12 C          63.7012   88.5299   15.5194 C.ar    1  UNL1        0.0627
     13 C          64.4456   87.6178   14.5897 C.ar    1  UNL1        0.0151
     14 C          64.4993   86.1447   14.8677 C.ar    1  UNL1        0.0028
     15 C          63.8087   85.5838   16.0754 C.ar    1  UNL1        0.0207
     16 C          63.0644   86.4958   17.0050 C.ar    1  UNL1        0.0985
     17 N          63.0107   87.9689   16.7270 N.ar    1  UNL1       -0.2478
     18 C          61.3985   89.5736   12.9160 C.3     1  UNL1        0.0499
     19 C          60.3703   89.6315   11.8255 C.3     1  UNL1        0.0774
     20 N          60.4607   88.6930   10.6588 N.3     1  UNL1       -0.2700
     21 C          60.7469   87.2383   10.8869 C.3     1  UNL1        0.0897
     22 C          60.2649   89.2092    9.2641 C.3     1  UNL1        0.0897
@<TRIPOS>BOND
     1    11    10    1
     2    11    12    1
     3    12    13   ar
     4    13    14   ar
     5    14    15   ar
     6    15    16   ar
     7    16    17   ar
     8    11     1    1
     9     1     2   ar
    10     2    18    1
    11    18    19    1
    12    19    20    1
    13    20    21    1
    14    20    22    1
    15     2     3   ar
    16     3     4   ar
    17     4     5   ar
    18     5     6   ar
    19     6     7   ar
    20     7     8   ar
    21     8     9   ar
    22    17    12   ar
    23     9     1   ar
    24     9     4   ar
@<TRIPOS>MOLECULE
*****
 22 24 0 0 0
SMALL
GASTEIGER

@<TRIPOS>ATOM
      1 C          62.1833   86.3099   10.5429 C.ar    1  UNL1       -0.0144
      2 C          62.4793   87.5237   11.3730 C.ar    1  UNL1        0.0051
      3 S          61.6445   88.6560   10.8524 S.2     1  UNL1       -0.0915
      4 C          60.8326   88.1421    9.7006 C.ar    1  UNL1        0.0288
      5 C          59.8332   88.8071    8.8013 C.ar    1  UNL1        0.0065
      6 C          59.1667   88.0221    7.7107 C.ar    1  UNL1        0.0005
      7 C          59.4996   86.5720    7.5194 C.ar    1  UNL1        0.0000
      8 C          60.4991   85.9071    8.4187 C.ar    1  UNL1        0.0002
      9 C          61.1656   86.6921    9.5093 C.ar    1  UNL1        0.0025
     10 C          63.5963   84.3430    9.6023 C.3     1  UNL1        0.0110
     11 C          62.7971   84.9523   10.7160 C.3     1  UNL1        0.0627
     12 C          62.6120   84.2039   12.0026 C.ar    1  UNL1        0.0627
     13 C          62.5171   82.7068   11.9926 C.ar    1  UNL1        0.0151
     14 C          62.3319   81.9583   13.2792 C.ar    1  UNL1        0.0028
     15 C          62.2415   82.7069   14.5760 C.ar    1  UNL1        0.0207
     16 C          62.3364   84.2038   14.5860 C.ar    1  UNL1        0.0985
     17 N          62.5216   84.9523   13.2994 N.ar    1  UNL1       -0.2478
     18 C          63.4411   87.5930   12.5219 C.3     1  UNL1        0.0499
     19 C          63.6924   88.9010   13.2119 C.3     1  UNL1        0.0774
     20 N          63.7749   88.9557   14.7086 N.3     1  UNL1       -0.2700
     21 C          63.7257   90.2783   15.4146 C.3     1  UNL1        0.0897
     22 C          63.9068   87.6879   15.4993 C.3     1  UNL1        0.0897
@<TRIPOS>BOND
     1    11    10    1
     2    11    12    1
     3    12    13   ar
     4    13    14   ar
     5    14    15   ar
     6    15    16   ar
     7    16    17   ar
     8    11     1    1
     9     1     2   ar
    10     2    18    1
    11    18    19    1
    12    19    20    1
    13    20    21    1
    14    20    22    1
    15     2     3   ar
    16     3     4   ar
    17     4     5   ar
    18     5     6   ar
    19     6     7   ar
    20     7     8   ar
    21     8     9   ar
    22    17    12   ar
    23     9     1   ar
    24     9     4   ar
@<TRIPOS>MOLECULE
*****
 22 24 0 0 0
SMALL
GASTEIGER

@<TRIPOS>ATOM
      1 C          63.5835   85.5510   13.1300 C.ar    1  UNL1       -0.0144
      2 C          63.2159   84.1318   12.8127 C.ar    1  UNL1        0.0051
      3 S          62.3598   84.1391   11.5809 S.2     1  UNL1       -0.0915
      4 C          62.1984   85.5627   11.1370 C.ar    1  UNL1        0.0288
      5 C          61.4605   86.1772    9.9847 C.ar    1  UNL1        0.0065
      6 C          61.4788   87.6644    9.7898 C.ar    1  UNL1        0.0005
      7 C          62.2351   88.5370   10.7471 C.ar    1  UNL1        0.0000
      8 C          62.9730   87.9225   11.8994 C.ar    1  UNL1        0.0002
      9 C          62.9547   86.4354   12.0943 C.ar    1  UNL1        0.0025
     10 C          65.6893   85.2650   14.6247 C.3     1  UNL1        0.0110
     11 C          64.4311   86.0060   14.2808 C.3     1  UNL1        0.0627
     12 C          64.0208   87.2019   15.0878 C.ar    1  UNL1        0.0627
     13 C          64.3294   88.5834   14.5916 C.ar    1  UNL1        0.0151
     14 C          63.9191   89.7794   15.3986 C.ar    1  UNL1        0.0028
     15 C          63.2000   89.5938   16.7019 C.ar    1  UNL1        0.0207
     16 C          62.8914   88.2124   17.1982 C.ar    1  UNL1        0.0985
     17 N          63.3018   87.0164   16.3912 N.ar    1  UNL1       -0.2478
     18 C          63.6313   82.9184   13.5905 C.3     1  UNL1        0.0499
     19 C          62.6147   82.1509   14.3826 C.3     1  UNL1        0.0774
     20 N          61.9224   80.9697   13.7698 N.3     1  UNL1       -0.2700
     21 C          62.6449   80.1095   12.7758 C.3     1  UNL1        0.0897
     22 C          60.5077   80.6487   14.1511 C.3     1  UNL1        0.0897
@<TRIPOS>BOND
     1    11    10    1
     2    11    12    1
     3    12    13   ar
     4    13    14   ar
     5    14    15   ar
     6    15    16   ar
     7    16    17   ar
     8    11     1    1
     9     1     2   ar
    10     2    18    1
    11    18    19    1
    12    19    20    1
    13    20    21    1
    14    20    22    1
    15     2     3   ar
    16     3     4   ar
    17     4     5   ar
    18     5     6   ar
    19     6     7   ar
    20     7     8   ar
    21     8     9   ar
    22    17    12   ar
    23     9     1   ar
    24     9     4   ar
@<TRIPOS>MOLECULE
*****
 22 24 0 0 0
SMALL
GASTEIGER

@<TRIPOS>ATOM
      1 C          62.9710   85.1174   11.4347 C.ar    1  UNL1       -0.0144
      2 C          63.3374   85.9909   12.5977 C.ar    1  UNL1        0.0051
      3 S          62.7313   87.3440   12.3701 S.2     1  UNL1       -0.0915
      4 C          61.9903   87.3067   11.0664 C.ar    1  UNL1        0.0288
      5 C          61.1998   88.3480   10.3311 C.ar    1  UNL1        0.0065
      6 C          60.5575   88.0131    9.0176 C.ar    1  UNL1        0.0005
      7 C          60.7057   86.6369    8.4395 C.ar    1  UNL1        0.0000
      8 C          61.4962   85.5956    9.1748 C.ar    1  UNL1        0.0002
      9 C          62.1385   85.9305   10.4883 C.ar    1  UNL1        0.0025
     10 C          64.2765   83.2946   10.1219 C.3     1  UNL1        0.0110
     11 C          63.3675   83.6825   11.2504 C.3     1  UNL1        0.0627
     12 C          62.8552   82.6356   12.1945 C.ar    1  UNL1        0.0627
     13 C          62.9386   81.1848   11.8225 C.ar    1  UNL1        0.0151
     14 C          62.4263   80.1377   12.7666 C.ar    1  UNL1        0.0028
     15 C          61.8306   80.5415   14.0827 C.ar    1  UNL1        0.0207
     16 C          61.7472   81.9922   14.4547 C.ar    1  UNL1        0.0985
     17 N          62.2595   83.0393   13.5106 N.ar    1  UNL1       -0.2478
     18 C          64.1646   85.5831   13.7807 C.3     1  UNL1        0.0499
     19 C          64.3535   86.5321   14.9268 C.3     1  UNL1        0.0774
     20 N          63.3767   86.5370   16.0652 N.3     1  UNL1       -0.2700
     21 C          63.1233   87.8019   16.8306 C.3     1  UNL1        0.0897
     22 C          62.6533   85.2770   16.4383 C.3     1  UNL1        0.0897
@<TRIPOS>BOND
     1    11    10    1
     2    11    12    1
     3    12    13   ar
     4    13    14   ar
     5    14    15   ar
     6    15    16   ar
     7    16    17   ar
     8    11     1    1
     9     1     2   ar
    10     2    18    1
    11    18    19    1
    12    19    20    1
    13    20    21    1
    14    20    22    1
    15     2     3   ar
    16     3     4   ar
    17     4     5   ar
    18     5     6   ar
    19     6     7   ar
    20     7     8   ar
    21     8     9   ar
    22    17    12   ar
    23     9     1   ar
    24     9     4   ar
@<TRIPOS>MOLECULE
*****
 22 24 0 0 0
SMALL
GASTEIGER

@<TRIPOS>ATOM
      1 C          63.4048   87.0909   12.9274 C.ar    1  UNL1       -0.0144
      2 C          63.5986   88.5674   13.1069 C.ar    1  UNL1        0.0051
      3 S          62.9281   89.2655   11.9609 S.2     1  UNL1       -0.0915
      4 C          62.3199   88.2204   11.0733 C.ar    1  UNL1        0.0288
      5 C          61.5360   88.3190    9.7983 C.ar    1  UNL1        0.0065
      6 C          61.0466   87.0735    9.1207 C.ar    1  UNL1        0.0005
      7 C          61.3412   85.7295    9.7180 C.ar    1  UNL1        0.0000
      8 C          62.1251   85.6309   10.9930 C.ar    1  UNL1        0.0002
      9 C          62.6145   86.8764   11.6706 C.ar    1  UNL1        0.0025
     10 C          64.7070   86.3846   15.0618 C.3     1  UNL1        0.0110
     11 C          63.9121   86.0172   13.8439 C.3     1  UNL1        0.0627
     12 C          63.6246   84.5763   13.5426 C.ar    1  UNL1        0.0627
     13 C          62.4873   83.8790   14.2285 C.ar    1  UNL1        0.0151
     14 C          62.1997   82.4380   13.9273 C.ar    1  UNL1        0.0028
     15 C          63.0495   81.6942   12.9400 C.ar    1  UNL1        0.0207
     16 C          64.1867   82.3914   12.2540 C.ar    1  UNL1        0.0985
     17 N          64.4743   83.8324   12.5553 N.ar    1  UNL1       -0.2478
     18 C          64.3338   89.2296   14.2342 C.3     1  UNL1        0.0499
     19 C          64.0680   90.6695   14.5597 C.3     1  UNL1        0.0774
     20 N          65.0952   91.7136   14.2359 N.3     1  UNL1       -0.2700
     21 C          65.9539   92.2842   15.3254 C.3     1  UNL1        0.0897
     22 C          65.2636   92.1871   12.8226 C.3     1  UNL1        0.0897
@<TRIPOS>BOND
     1    11    10    1
     2    11    12    1
     3    12    13   ar
     4    13    14   ar
     5    14    15   ar
     6    15    16   ar
     7    16    17   ar
     8    11     1    1
     9     1     2   ar
    10     2    18    1
    11    18    19    1
    12    19    20    1
    13    20    21    1
    14    20    22    1
    15     2     3   ar
    16     3     4   ar
    17     4     5   ar
    18     5     6   ar
    19     6     7   ar
    20     7     8   ar
    21     8     9   ar
    22    17    12   ar
    23     9     1   ar
    24     9     4   ar
@<TRIPOS>MOLECULE
*****
 22 24 0 0 0
SMALL
GASTEIGER

@<TRIPOS>ATOM
      1 C          63.2172   86.7281   12.6691 C.ar    1  UNL1       -0.0144
      2 C          62.3924   86.8787   11.4252 C.ar    1  UNL1        0.0051
      3 S          62.2875   88.3421   11.1131 S.2     1  UNL1       -0.0915
      4 C          63.0473   89.0959   12.1640 C.ar    1  UNL1        0.0288
      5 C          63.2902   90.5618   12.3695 C.ar    1  UNL1        0.0065
      6 C          64.1078   91.0301   13.5366 C.ar    1  UNL1        0.0005
      7 C          64.6824   90.0326   14.4983 C.ar    1  UNL1        0.0000
      8 C          64.4395   88.5667   14.2928 C.ar    1  UNL1        0.0002
      9 C          63.6219   88.0984   13.1256 C.ar    1  UNL1        0.0025
     10 C          64.0230   85.4296   14.7702 C.3     1  UNL1        0.0110
     11 C          63.5745   85.4344   13.3388 C.3     1  UNL1        0.0627
     12 C          63.4833   84.1454   12.5772 C.ar    1  UNL1        0.0627
     13 C          64.4361   83.8701   11.4518 C.ar    1  UNL1        0.0151
     14 C          64.3450   82.5811   10.6902 C.ar    1  UNL1        0.0028
     15 C          63.3010   81.5672   11.0540 C.ar    1  UNL1        0.0207
     16 C          62.3483   81.8425   12.1793 C.ar    1  UNL1        0.0985
     17 N          62.4394   83.1315   12.9410 N.ar    1  UNL1       -0.2478
     18 C          61.7802   85.7620   10.6327 C.3     1  UNL1        0.0499
     19 C          62.1497   85.5751    9.1910 C.3     1  UNL1        0.0774
     20 N          61.1284   85.8118    8.1182 N.3     1  UNL1       -0.2700
     21 C          61.2673   85.1333    6.7876 C.3     1  UNL1        0.0897
     22 C          59.9682   86.7269    8.3760 C.3     1  UNL1        0.0897
@<TRIPOS>BOND
     1    11    10    1
     2    11    12    1
     3    12    13   ar
     4    13    14   ar
     5    14    15   ar
     6    15    16   ar
     7    16    17   ar
     8    11     1    1
     9     1     2   ar
    10     2    18    1
    11    18    19    1
    12    19    20    1
    13    20    21    1
    14    20    22    1
    15     2     3   ar
    16     3     4   ar
    17     4     5   ar
    18     5     6   ar
    19     6     7   ar
    20     7     8   ar
    21     8     9   ar
    22    17    12   ar
    23     9     1   ar
    24     9     4   ar
@<TRIPOS>MOLECULE
*****
 22 24 0 0 0
SMALL
GASTEIGER

@<TRIPOS>ATOM
      1 C          62.8767   84.8431   11.4029 C.ar    1  UNL1       -0.0144
      2 C          63.0753   85.7617   12.5720 C.ar    1  UNL1        0.0051
      3 S          63.1739   84.9211   13.8104 S.2     1  UNL1       -0.0915
      4 C          63.0363   83.4830   13.4067 C.ar    1  UNL1        0.0288
      5 C          63.0546   82.2112   14.2017 C.ar    1  UNL1        0.0065
      6 C          62.8891   80.8912   13.5088 C.ar    1  UNL1        0.0005
      7 C          62.7054   80.8430   12.0209 C.ar    1  UNL1        0.0000
      8 C          62.6872   82.1148   11.2258 C.ar    1  UNL1        0.0002
      9 C          62.8526   83.4348   11.9187 C.ar    1  UNL1        0.0025
     10 C          63.4955   84.5443    8.8973 C.3     1  UNL1        0.0110
     11 C          62.7283   85.2597    9.9695 C.3     1  UNL1        0.0627
     12 C          61.8127   86.3915    9.6084 C.ar    1  UNL1        0.0627
     13 C          60.4902   86.1086    8.9594 C.ar    1  UNL1        0.0151
     14 C          59.5745   87.2405    8.5982 C.ar    1  UNL1        0.0028
     15 C          59.9813   88.6553    8.8860 C.ar    1  UNL1        0.0207
     16 C          61.3038   88.9382    9.5349 C.ar    1  UNL1        0.0985
     17 N          62.2194   87.8064    9.8961 N.ar    1  UNL1       -0.2478
     18 C          63.1603   87.2582   12.5130 C.3     1  UNL1        0.0499
     19 C          63.8965   88.0103   13.5818 C.3     1  UNL1        0.0774
     20 N          63.5372   89.4360   13.8785 N.3     1  UNL1       -0.2700
     21 C          63.2317   90.3819   12.7551 C.3     1  UNL1        0.0897
     22 C          63.4833   89.9160   15.2986 C.3     1  UNL1        0.0897
@<TRIPOS>BOND
     1    11    10    1
     2    11    12    1
     3    12    13   ar
     4    13    14   ar
     5    14    15   ar
     6    15    16   ar
     7    16    17   ar
     8    11     1    1
     9     1     2   ar
    10     2    18    1
    11    18    19    1
    12    19    20    1
    13    20    21    1
    14    20    22    1
    15     2     3   ar
    16     3     4   ar
    17     4     5   ar
    18     5     6   ar
    19     6     7   ar
    20     7     8   ar
    21     8     9   ar
    22    17    12   ar
    23     9     1   ar
    24     9     4   ar
