@<TRIPOS>MOLECULE
*****
 33 37 0 0 0
SMALL
GASTEIGER

@<TRIPOS>ATOM
      1 C          63.2401   88.7476   12.9155 C.2     1  UNL1        0.2507
      2 O          62.1004   88.9051   11.9532 O.2     1  UNL1       -0.2698
      3 N          63.6103   87.3854   13.4230 N.am    1  UNL1       -0.2727
      4 C          64.7500   87.2278   14.3854 C.3     1  UNL1        0.0987
      5 C          65.1202   85.8657   14.8930 C.3     1  UNL1        0.0481
      6 C          64.3506   84.6612   14.4382 C.ar    1  UNL1       -0.0164
      7 C          64.4834   83.2032   14.7645 C.ar    1  UNL1        0.0030
      8 C          63.4258   82.4597   14.0039 C.ar    1  UNL1        0.0348
      9 S          62.6392   83.4581   13.2074 S.2     1  UNL1       -0.0895
     10 C          63.2108   84.8188   13.4758 C.ar    1  UNL1        0.0217
     11 C          62.8406   86.1809   12.9682 C.3     1  UNL1        0.1081
     12 N          65.1801   91.5485   14.7745 N.ar    1  UNL1       -0.3259
     13 C          64.4396   90.2441   14.7774 C.ar    1  UNL1        0.0804
     14 C          64.0097   89.9521   13.3703 C.ar    1  UNL1        0.0721
     15 C          64.4846   91.0761   12.4978 C.ar    1  UNL1        0.0216
     16 C          64.3517   91.3285   11.0252 C.ar    1  UNL1        0.0016
     17 C          64.9423   92.5677   10.4205 C.ar    1  UNL1        0.0001
     18 C          65.6656   93.5544   11.2884 C.ar    1  UNL1        0.0015
     19 C          65.7984   93.3019   12.7609 C.ar    1  UNL1        0.0172
     20 C          65.2079   92.0627   13.3657 C.ar    1  UNL1        0.0601
     21 C          67.2480   92.5585   15.9804 C.3     1  UNL1        0.0265
     22 C          65.7864   92.2208   15.9705 C.3     1  UNL1        0.1061
     23 C          61.7009   86.3385   12.0059 C.3     1  UNL1        0.0513
     24 C          61.8784   85.9616   10.5649 C.ar    1  UNL1       -0.0169
     25 C          63.0930   85.1936   10.1348 C.ar    1  UNL1       -0.0009
     26 C          63.2705   84.8167    8.6938 C.ar    1  UNL1        0.0397
     27 C          62.2335   85.2077    7.6830 C.ar    1  UNL1        0.1724
     28 C          61.0190   85.9757    8.1131 C.ar    1  UNL1        0.1721
     29 C          60.8414   86.3526    9.5541 C.ar    1  UNL1        0.0359
     30 O          62.4110   84.8308    6.2420 O.3     1  UNL1       -0.4684
     31 C          61.4513   83.8787    5.5921 C.3     1  UNL1        0.2526
     32 O          59.9819   86.3667    7.1024 O.3     1  UNL1       -0.4684
     33 C          58.9370   87.3837    7.4548 C.3     1  UNL1        0.2526
@<TRIPOS>BOND
     1    21    22    1
     2    22    12    1
     3    12    13   ar
     4    13    14   ar
     5    14     1    1
     6     1     2    2
     7     1     3   am
     8     3     4    1
     9     4     5    1
    10     5     6    1
    11     6     7   ar
    12     7     8   ar
    13     8     9   ar
    14     9    10   ar
    15    10    11    1
    16    11    23    1
    17    23    24    1
    18    24    25   ar
    19    25    26   ar
    20    26    27   ar
    21    27    30    1
    22    30    31    1
    23    27    28   ar
    24    28    32    1
    25    32    33    1
    26    28    29   ar
    27    14    15   ar
    28    15    16   ar
    29    16    17   ar
    30    17    18   ar
    31    18    19   ar
    32    19    20   ar
    33    20    12   ar
    34    11     3    1
    35    29    24   ar
    36    20    15   ar
    37    10     6   ar
@<TRIPOS>MOLECULE
*****
 33 37 0 0 0
SMALL
GASTEIGER

@<TRIPOS>ATOM
      1 C          63.4309   89.6764   11.9948 C.2     1  UNL1        0.2507
      2 O          63.6217   88.6210   13.0433 O.2     1  UNL1       -0.2698
      3 N          62.4399   89.4644   10.8888 N.am    1  UNL1       -0.2727
      4 C          62.2491   90.5199    9.8402 C.3     1  UNL1        0.0987
      5 C          61.2581   90.3080    8.7343 C.3     1  UNL1        0.0481
      6 C          60.4580   89.0405    8.6770 C.ar    1  UNL1       -0.0164
      7 C          59.4156   88.5543    7.7142 C.ar    1  UNL1        0.0030
      8 C          58.9622   87.1983    8.1678 C.ar    1  UNL1        0.0348
      9 S          59.7244   86.8464    9.4109 S.2     1  UNL1       -0.0895
     10 C          60.6489   87.9850    9.7256 C.ar    1  UNL1        0.0217
     11 C          61.6398   88.1969   10.8315 C.3     1  UNL1        0.1081
     12 N          65.3221   93.0157   11.4136 N.ar    1  UNL1       -0.3259
     13 C          64.4745   91.8853   10.9099 C.ar    1  UNL1        0.0804
     14 C          64.2311   90.9439   12.0521 C.ar    1  UNL1        0.0721
     15 C          64.9282   91.4925   13.2617 C.ar    1  UNL1        0.0216
     16 C          65.0361   90.9916   14.6714 C.ar    1  UNL1        0.0016
     17 C          65.8183   91.7711   15.6865 C.ar    1  UNL1        0.0001
     18 C          66.4926   93.0515   15.2919 C.ar    1  UNL1        0.0015
     19 C          66.3847   93.5525   13.8822 C.ar    1  UNL1        0.0172
     20 C          65.6025   92.7730   12.8670 C.ar    1  UNL1        0.0601
     21 C          67.0166   94.0429    9.7331 C.3     1  UNL1        0.0265
     22 C          65.8046   94.1839   10.6057 C.3     1  UNL1        0.1061
     23 C          61.8307   87.1414   11.8801 C.3     1  UNL1        0.0513
     24 C          62.4194   85.8128   11.5084 C.ar    1  UNL1       -0.0169
     25 C          62.7595   85.5171   10.0778 C.ar    1  UNL1       -0.0009
     26 C          63.3483   84.1884    9.7061 C.ar    1  UNL1        0.0397
     27 C          63.5969   83.1556   10.7651 C.ar    1  UNL1        0.1724
     28 C          63.2568   83.4514   12.1957 C.ar    1  UNL1        0.1721
     29 C          62.6680   84.7800   12.5674 C.ar    1  UNL1        0.0359
     30 O          64.1857   81.8270   10.3934 O.3     1  UNL1       -0.4684
     31 C          63.3041   80.6175   10.2940 C.3     1  UNL1        0.2526
     32 O          63.5054   82.4186   13.2547 O.3     1  UNL1       -0.4684
     33 C          62.3509   81.6961   13.8836 C.3     1  UNL1        0.2526
@<TRIPOS>BOND
     1    21    22    1
     2    22    12    1
     3    12    13   ar
     4    13    14   ar
     5    14     1    1
     6     1     2    2
     7     1     3   am
     8     3     4    1
     9     4     5    1
    10     5     6    1
    11     6     7   ar
    12     7     8   ar
    13     8     9   ar
    14     9    10   ar
    15    10    11    1
    16    11    23    1
    17    23    24    1
    18    24    25   ar
    19    25    26   ar
    20    26    27   ar
    21    27    30    1
    22    30    31    1
    23    27    28   ar
    24    28    32    1
    25    32    33    1
    26    28    29   ar
    27    14    15   ar
    28    15    16   ar
    29    16    17   ar
    30    17    18   ar
    31    18    19   ar
    32    19    20   ar
    33    20    12   ar
    34    11     3    1
    35    29    24   ar
    36    20    15   ar
    37    10     6   ar
@<TRIPOS>MOLECULE
*****
 33 37 0 0 0
SMALL
GASTEIGER

@<TRIPOS>ATOM
      1 C          63.5480   85.3259   13.7152 C.2     1  UNL1        0.2507
      2 O          64.5098   85.6246   14.8267 O.2     1  UNL1       -0.2698
      3 N          63.0807   86.4281   12.8113 N.am    1  UNL1       -0.2727
      4 C          62.1189   86.1295   11.6997 C.3     1  UNL1        0.0987
      5 C          61.6516   87.2316   10.7958 C.3     1  UNL1        0.0481
      6 C          62.1462   88.6324   11.0037 C.ar    1  UNL1       -0.0164
      7 C          61.8640   89.9145   10.2780 C.ar    1  UNL1        0.0030
      8 C          62.6514   91.0055   10.9411 C.ar    1  UNL1        0.0348
      9 S          63.4203   90.3977   12.0766 S.2     1  UNL1       -0.0895
     10 C          63.1080   88.9310   12.1153 C.ar    1  UNL1        0.0217
     11 C          63.5753   87.8289   13.0191 C.3     1  UNL1        0.1081
     12 N          61.9561   81.7888   13.8576 N.ar    1  UNL1       -0.3259
     13 C          62.2187   83.1330   14.4695 C.ar    1  UNL1        0.0804
     14 C          63.0534   83.9251   13.5073 C.ar    1  UNL1        0.0721
     15 C          63.3068   83.0705   12.3009 C.ar    1  UNL1        0.0216
     16 C          64.0675   83.3240   11.0332 C.ar    1  UNL1        0.0016
     17 C          64.1500   82.2573    9.9820 C.ar    1  UNL1        0.0001
     18 C          63.4718   80.9369   10.1985 C.ar    1  UNL1        0.0015
     19 C          62.7111   80.6834   11.4661 C.ar    1  UNL1        0.0172
     20 C          62.6287   81.7502   12.5174 C.ar    1  UNL1        0.0601
     21 C          59.7224   80.4839   14.0982 C.3     1  UNL1        0.0265
     22 C          61.1607   80.6782   14.4772 C.3     1  UNL1        0.1061
     23 C          64.5371   88.1275   14.1307 C.3     1  UNL1        0.0513
     24 C          64.4239   89.4130   14.8955 C.ar    1  UNL1       -0.0169
     25 C          63.3915   89.5554   15.9742 C.ar    1  UNL1       -0.0009
     26 C          63.2782   90.8408   16.7390 C.ar    1  UNL1        0.0397
     27 C          64.1974   91.9838   16.4249 C.ar    1  UNL1        0.1724
     28 C          65.2298   91.8414   15.3461 C.ar    1  UNL1        0.1721
     29 C          65.3431   90.5560   14.5814 C.ar    1  UNL1        0.0359
     30 O          64.0841   93.2693   17.1896 O.3     1  UNL1       -0.4684
     31 C          62.7367   93.8836   17.4287 C.3     1  UNL1        0.2526
     32 O          66.1489   92.9844   15.0320 O.3     1  UNL1       -0.4684
     33 C          67.4514   93.1224   15.7634 C.3     1  UNL1        0.2526
@<TRIPOS>BOND
     1    21    22    1
     2    22    12    1
     3    12    13   ar
     4    13    14   ar
     5    14     1    1
     6     1     2    2
     7     1     3   am
     8     3     4    1
     9     4     5    1
    10     5     6    1
    11     6     7   ar
    12     7     8   ar
    13     8     9   ar
    14     9    10   ar
    15    10    11    1
    16    11    23    1
    17    23    24    1
    18    24    25   ar
    19    25    26   ar
    20    26    27   ar
    21    27    30    1
    22    30    31    1
    23    27    28   ar
    24    28    32    1
    25    32    33    1
    26    28    29   ar
    27    14    15   ar
    28    15    16   ar
    29    16    17   ar
    30    17    18   ar
    31    18    19   ar
    32    19    20   ar
    33    20    12   ar
    34    11     3    1
    35    29    24   ar
    36    20    15   ar
    37    10     6   ar
@<TRIPOS>MOLECULE
*****
 33 37 0 0 0
SMALL
GASTEIGER

@<TRIPOS>ATOM
      1 C          61.9809   89.6957   12.0343 C.2     1  UNL1        0.2507
      2 O          61.4390   89.1796   13.3342 O.2     1  UNL1       -0.2698
      3 N          63.1637   90.6182   12.0283 N.am    1  UNL1       -0.2727
      4 C          63.7057   91.1344   10.7284 C.3     1  UNL1        0.0987
      5 C          64.8884   92.0569   10.7223 C.3     1  UNL1        0.0481
      6 C          65.5292   92.4633   12.0162 C.ar    1  UNL1       -0.0164
      7 C          66.6979   93.3524   12.3217 C.ar    1  UNL1        0.0030
      8 C          66.8783   93.3858   13.8105 C.ar    1  UNL1        0.0348
      9 S          65.8210   92.5173   14.4251 S.2     1  UNL1       -0.0895
     10 C          64.9872   91.9471   13.3162 C.ar    1  UNL1        0.0217
     11 C          63.8045   91.0246   13.3222 C.3     1  UNL1        0.1081
     12 N          60.0091   89.3288    8.7113 N.ar    1  UNL1       -0.3259
     13 C          60.4052   90.1262    9.9184 C.ar    1  UNL1        0.0804
     14 C          61.3401   89.2893   10.7404 C.ar    1  UNL1        0.0721
     15 C          61.5217   87.9747   10.0412 C.ar    1  UNL1        0.0216
     16 C          62.3299   86.7585   10.3845 C.ar    1  UNL1        0.0016
     17 C          62.3155   85.5668    9.4737 C.ar    1  UNL1        0.0001
     18 C          61.4928   85.5912    8.2197 C.ar    1  UNL1        0.0015
     19 C          60.6847   86.8073    7.8764 C.ar    1  UNL1        0.0172
     20 C          60.6991   87.9990    8.7872 C.ar    1  UNL1        0.0601
     21 C          59.5366   89.7406    6.1899 C.3     1  UNL1        0.0265
     22 C          59.0851   89.7815    7.6198 C.3     1  UNL1        0.1061
     23 C          63.2625   90.5085   14.6222 C.3     1  UNL1        0.0513
     24 C          63.4978   89.0812   15.0190 C.ar    1  UNL1       -0.0169
     25 C          64.4129   88.2170   14.2030 C.ar    1  UNL1       -0.0009
     26 C          64.6482   86.7897   14.5998 C.ar    1  UNL1        0.0397
     27 C          63.9685   86.2266   15.8125 C.ar    1  UNL1        0.1724
     28 C          63.0534   87.0907   16.6285 C.ar    1  UNL1        0.1721
     29 C          62.8180   88.5181   16.2318 C.ar    1  UNL1        0.0359
     30 O          64.2038   84.7993   16.2094 O.3     1  UNL1       -0.4684
     31 C          63.8219   83.6887   15.2762 C.3     1  UNL1        0.2526
     32 O          62.3736   86.5276   17.8413 O.3     1  UNL1       -0.4684
     33 C          62.6800   87.0854   19.1997 C.3     1  UNL1        0.2526
@<TRIPOS>BOND
     1    21    22    1
     2    22    12    1
     3    12    13   ar
     4    13    14   ar
     5    14     1    1
     6     1     2    2
     7     1     3   am
     8     3     4    1
     9     4     5    1
    10     5     6    1
    11     6     7   ar
    12     7     8   ar
    13     8     9   ar
    14     9    10   ar
    15    10    11    1
    16    11    23    1
    17    23    24    1
    18    24    25   ar
    19    25    26   ar
    20    26    27   ar
    21    27    30    1
    22    30    31    1
    23    27    28   ar
    24    28    32    1
    25    32    33    1
    26    28    29   ar
    27    14    15   ar
    28    15    16   ar
    29    16    17   ar
    30    17    18   ar
    31    18    19   ar
    32    19    20   ar
    33    20    12   ar
    34    11     3    1
    35    29    24   ar
    36    20    15   ar
    37    10     6   ar
@<TRIPOS>MOLECULE
*****
 33 37 0 0 0
SMALL
GASTEIGER

@<TRIPOS>ATOM
      1 C          63.5870   89.2540   13.0927 C.2     1  UNL1        0.2507
      2 O          63.6182   88.0090   13.9286 O.2     1  UNL1       -0.2698
      3 N          62.7297   89.3104   11.8630 N.am    1  UNL1       -0.2727
      4 C          62.6985   90.5554   11.0269 C.3     1  UNL1        0.0987
      5 C          61.8414   90.6119    9.7973 C.3     1  UNL1        0.0481
      6 C          61.0154   89.4233    9.4037 C.ar    1  UNL1       -0.0164
      7 C          60.0815   89.1863    8.2541 C.ar    1  UNL1        0.0030
      8 C          59.5355   87.7948    8.3796 C.ar    1  UNL1        0.0348
      9 S          60.1319   87.1718    9.6068 S.2     1  UNL1       -0.0895
     10 C          61.0466   88.1783   10.2398 C.ar    1  UNL1        0.0217
     11 C          61.9037   88.1218   11.4694 C.3     1  UNL1        0.1081
     12 N          65.6686   92.0457   14.8068 N.ar    1  UNL1       -0.3259
     13 C          64.8735   90.7756   14.8744 C.ar    1  UNL1        0.0804
     14 C          64.4130   90.4426   13.4862 C.ar    1  UNL1        0.0721
     15 C          64.9235   91.5069   12.5607 C.ar    1  UNL1        0.0216
     16 C          64.7820   91.7019   11.0802 C.ar    1  UNL1        0.0016
     17 C          65.4165   92.8876   10.4158 C.ar    1  UNL1        0.0001
     18 C          66.1926   93.8784   11.2320 C.ar    1  UNL1        0.0015
     19 C          66.3341   93.6834   12.7125 C.ar    1  UNL1        0.0172
     20 C          65.6996   92.4977   13.3768 C.ar    1  UNL1        0.0601
     21 C          67.8074   92.9247   15.9914 C.3     1  UNL1        0.0265
     22 C          66.3188   92.7417   15.9657 C.3     1  UNL1        0.1061
     23 C          61.9349   86.8768   12.3054 C.3     1  UNL1        0.0513
     24 C          62.5176   85.6126   11.7467 C.ar    1  UNL1       -0.0169
     25 C          62.7435   85.4796   10.2698 C.ar    1  UNL1       -0.0009
     26 C          63.3262   84.2154    9.7110 C.ar    1  UNL1        0.0397
     27 C          63.6830   83.0842   10.6291 C.ar    1  UNL1        0.1724
     28 C          63.4572   83.2171   12.1060 C.ar    1  UNL1        0.1721
     29 C          62.8745   84.4813   12.6649 C.ar    1  UNL1        0.0359
     30 O          64.2657   81.8200   10.0704 O.3     1  UNL1       -0.4684
     31 C          63.4362   80.5714   10.0169 C.3     1  UNL1        0.2526
     32 O          63.8140   82.0859   13.0242 O.3     1  UNL1       -0.4684
     33 C          62.7332   81.2283   13.6129 C.3     1  UNL1        0.2526
@<TRIPOS>BOND
     1    21    22    1
     2    22    12    1
     3    12    13   ar
     4    13    14   ar
     5    14     1    1
     6     1     2    2
     7     1     3   am
     8     3     4    1
     9     4     5    1
    10     5     6    1
    11     6     7   ar
    12     7     8   ar
    13     8     9   ar
    14     9    10   ar
    15    10    11    1
    16    11    23    1
    17    23    24    1
    18    24    25   ar
    19    25    26   ar
    20    26    27   ar
    21    27    30    1
    22    30    31    1
    23    27    28   ar
    24    28    32    1
    25    32    33    1
    26    28    29   ar
    27    14    15   ar
    28    15    16   ar
    29    16    17   ar
    30    17    18   ar
    31    18    19   ar
    32    19    20   ar
    33    20    12   ar
    34    11     3    1
    35    29    24   ar
    36    20    15   ar
    37    10     6   ar
@<TRIPOS>MOLECULE
*****
 33 37 0 0 0
SMALL
GASTEIGER

@<TRIPOS>ATOM
      1 C          63.5386   89.8023   12.1382 C.2     1  UNL1        0.2507
      2 O          63.7205   88.7266   13.1676 O.2     1  UNL1       -0.2698
      3 N          62.5387   89.6227   11.0344 N.am    1  UNL1       -0.2727
      4 C          62.3568   90.6984   10.0050 C.3     1  UNL1        0.0987
      5 C          61.3571   90.5190    8.9013 C.3     1  UNL1        0.0481
      6 C          60.5393   89.2637    8.8270 C.ar    1  UNL1       -0.0164
      7 C          59.4850   88.8083    7.8620 C.ar    1  UNL1        0.0030
      8 C          59.0154   87.4511    8.2951 C.ar    1  UNL1        0.0348
      9 S          59.7794   87.0677    9.5277 S.2     1  UNL1       -0.0895
     10 C          60.7212   88.1880    9.8564 C.ar    1  UNL1        0.0217
     11 C          61.7209   88.3674   10.9601 C.3     1  UNL1        0.1081
     12 N          65.4856   93.1164   11.5992 N.ar    1  UNL1       -0.3259
     13 C          64.6280   92.0013   11.0787 C.ar    1  UNL1        0.0804
     14 C          64.3564   91.0575   12.2125 C.ar    1  UNL1        0.0721
     15 C          65.0461   91.5894   13.4337 C.ar    1  UNL1        0.0216
     16 C          65.1289   91.0794   14.8419 C.ar    1  UNL1        0.0016
     17 C          65.9095   91.8419   15.8710 C.ar    1  UNL1        0.0001
     18 C          66.6075   93.1144   15.4920 C.ar    1  UNL1        0.0015
     19 C          66.5247   93.6244   14.0838 C.ar    1  UNL1        0.0172
     20 C          65.7440   92.8619   13.0547 C.ar    1  UNL1        0.0601
     21 C          66.8651   94.0478    9.6042 C.3     1  UNL1        0.0265
     22 C          65.9953   94.2816   10.8038 C.3     1  UNL1        0.1061
     23 C          61.9029   87.2917   11.9896 C.3     1  UNL1        0.0513
     24 C          62.4822   85.9657   11.5944 C.ar    1  UNL1       -0.0169
     25 C          62.9020   84.9862   12.6500 C.ar    1  UNL1       -0.0009
     26 C          63.4813   83.6602   12.2549 C.ar    1  UNL1        0.0397
     27 C          63.6408   83.3137   10.8042 C.ar    1  UNL1        0.1724
     28 C          63.2210   84.2932    9.7486 C.ar    1  UNL1        0.1721
     29 C          62.6417   85.6193   10.1437 C.ar    1  UNL1        0.0359
     30 O          64.2201   81.9877   10.4091 O.3     1  UNL1       -0.4684
     31 C          63.3557   80.7619   10.4085 C.3     1  UNL1        0.2526
     32 O          63.3805   83.9468    8.2979 O.3     1  UNL1       -0.4684
     33 C          62.7007   84.7768    7.2495 C.3     1  UNL1        0.2526
@<TRIPOS>BOND
     1    21    22    1
     2    22    12    1
     3    12    13   ar
     4    13    14   ar
     5    14     1    1
     6     1     2    2
     7     1     3   am
     8     3     4    1
     9     4     5    1
    10     5     6    1
    11     6     7   ar
    12     7     8   ar
    13     8     9   ar
    14     9    10   ar
    15    10    11    1
    16    11    23    1
    17    23    24    1
    18    24    25   ar
    19    25    26   ar
    20    26    27   ar
    21    27    30    1
    22    30    31    1
    23    27    28   ar
    24    28    32    1
    25    32    33    1
    26    28    29   ar
    27    14    15   ar
    28    15    16   ar
    29    16    17   ar
    30    17    18   ar
    31    18    19   ar
    32    19    20   ar
    33    20    12   ar
    34    11     3    1
    35    29    24   ar
    36    20    15   ar
    37    10     6   ar
@<TRIPOS>MOLECULE
*****
 33 37 0 0 0
SMALL
GASTEIGER

@<TRIPOS>ATOM
      1 C          62.2610   86.2581   11.5769 C.2     1  UNL1        0.2507
      2 O          62.5183   87.1807   12.7312 O.2     1  UNL1       -0.2698
      3 N          61.5404   86.7609   10.3611 N.am    1  UNL1       -0.2727
      4 C          61.2830   85.8383    9.2068 C.3     1  UNL1        0.0987
      5 C          60.5624   86.3410    7.9911 C.3     1  UNL1        0.0481
      6 C          60.0992   87.7664    7.9297 C.ar    1  UNL1       -0.0164
      7 C          59.3697   88.5400    6.8718 C.ar    1  UNL1        0.0030
      8 C          59.1762   89.9407    7.3723 C.ar    1  UNL1        0.0348
      9 S          59.7861   90.0328    8.7396 S.2     1  UNL1       -0.0895
     10 C          60.3566   88.6890    9.0841 C.ar    1  UNL1        0.0217
     11 C          61.0772   88.1863   10.2998 C.3     1  UNL1        0.1081
     12 N          63.5035   82.6288   10.9857 N.ar    1  UNL1       -0.3259
     13 C          63.1041   83.9779   10.4657 C.ar    1  UNL1        0.0804
     14 C          62.7242   84.8327   11.6383 C.ar    1  UNL1        0.0721
     15 C          62.8888   84.0120   12.8830 C.ar    1  UNL1        0.0216
     16 C          62.6623   84.3289   14.3315 C.ar    1  UNL1        0.0016
     17 C          62.9175   83.2838   15.3767 C.ar    1  UNL1        0.0001
     18 C          63.3991   81.9217   14.9734 C.ar    1  UNL1        0.0015
     19 C          63.6256   81.6047   13.5249 C.ar    1  UNL1        0.0172
     20 C          63.3705   82.6499   12.4797 C.ar    1  UNL1        0.0601
     21 C          63.1342   80.2095   10.1136 C.3     1  UNL1        0.0265
     22 C          63.9565   81.4633   10.1573 C.3     1  UNL1        0.1061
     23 C          61.3345   89.1089   11.4542 C.3     1  UNL1        0.0513
     24 C          62.4593   90.0990   11.3866 C.ar    1  UNL1       -0.0169
     25 C          62.8868   90.6591   10.0625 C.ar    1  UNL1       -0.0009
     26 C          64.0116   91.6492    9.9949 C.ar    1  UNL1        0.0397
     27 C          64.7088   92.0792   11.2515 C.ar    1  UNL1        0.1724
     28 C          64.2813   91.5191   12.5756 C.ar    1  UNL1        0.1721
     29 C          63.1565   90.5290   12.6433 C.ar    1  UNL1        0.0359
     30 O          65.8336   93.0694   11.1839 O.3     1  UNL1       -0.4684
     31 C          67.0223   92.7956   10.3111 C.3     1  UNL1        0.2526
     32 O          64.9784   91.9491   13.8322 O.3     1  UNL1       -0.4684
     33 C          66.3443   91.4175   14.1517 C.3     1  UNL1        0.2526
@<TRIPOS>BOND
     1    21    22    1
     2    22    12    1
     3    12    13   ar
     4    13    14   ar
     5    14     1    1
     6     1     2    2
     7     1     3   am
     8     3     4    1
     9     4     5    1
    10     5     6    1
    11     6     7   ar
    12     7     8   ar
    13     8     9   ar
    14     9    10   ar
    15    10    11    1
    16    11    23    1
    17    23    24    1
    18    24    25   ar
    19    25    26   ar
    20    26    27   ar
    21    27    30    1
    22    30    31    1
    23    27    28   ar
    24    28    32    1
    25    32    33    1
    26    28    29   ar
    27    14    15   ar
    28    15    16   ar
    29    16    17   ar
    30    17    18   ar
    31    18    19   ar
    32    19    20   ar
    33    20    12   ar
    34    11     3    1
    35    29    24   ar
    36    20    15   ar
    37    10     6   ar
@<TRIPOS>MOLECULE
*****
 33 37 0 0 0
SMALL
GASTEIGER

@<TRIPOS>ATOM
      1 C          64.4039   90.4305   13.1510 C.2     1  UNL1        0.2507
      2 O          64.5805   89.5022   14.3159 O.2     1  UNL1       -0.2698
      3 N          63.4472   90.0792   12.0503 N.am    1  UNL1       -0.2727
      4 C          63.2707   91.0074   10.8854 C.3     1  UNL1        0.0987
      5 C          62.3141   90.6562    9.7847 C.3     1  UNL1        0.0481
      6 C          61.5341   89.3766    9.8490 C.ar    1  UNL1       -0.0164
      7 C          60.5259   88.7679    8.9200 C.ar    1  UNL1        0.0030
      8 C          60.0794   87.4634    9.5107 C.ar    1  UNL1        0.0348
      9 S          60.8116   87.2658   10.8048 S.2     1  UNL1       -0.0895
     10 C          61.7106   88.4483   11.0139 C.ar    1  UNL1        0.0217
     11 C          62.6672   88.7995   12.1146 C.3     1  UNL1        0.1081
     12 N          66.0714   93.8367   12.3247 N.ar    1  UNL1       -0.3259
     13 C          65.1361   92.7170   11.9759 C.ar    1  UNL1        0.0804
     14 C          65.1839   91.7101   13.0868 C.ar    1  UNL1        0.0721
     15 C          66.1487   92.2075   14.1220 C.ar    1  UNL1        0.0216
     16 C          66.5987   91.6334   15.4327 C.ar    1  UNL1        0.0016
     17 C          67.5971   92.3737   16.2724 C.ar    1  UNL1        0.0001
     18 C          68.1456   93.6880   15.8015 C.ar    1  UNL1        0.0015
     19 C          67.6956   94.2620   14.4908 C.ar    1  UNL1        0.0172
     20 C          66.6972   93.5218   13.6511 C.ar    1  UNL1        0.0601
     21 C          67.0616   94.9320   10.1870 C.3     1  UNL1        0.0265
     22 C          66.3346   95.0570   11.4931 C.3     1  UNL1        0.1061
     23 C          62.8438   87.8712   13.2795 C.3     1  UNL1        0.0513
     24 C          63.2918   86.4580   13.0512 C.ar    1  UNL1       -0.0169
     25 C          63.9772   85.7017   14.1504 C.ar    1  UNL1       -0.0009
     26 C          64.4252   84.2885   13.9221 C.ar    1  UNL1        0.0397
     27 C          64.1877   83.6316   12.5947 C.ar    1  UNL1        0.1724
     28 C          63.5023   84.3879   11.4955 C.ar    1  UNL1        0.1721
     29 C          63.0543   85.8011   11.7238 C.ar    1  UNL1        0.0359
     30 O          64.6357   82.2184   12.3664 O.3     1  UNL1       -0.4684
     31 C          63.7842   81.0765   12.8364 C.3     1  UNL1        0.2526
     32 O          63.2649   83.7310   10.1681 O.3     1  UNL1       -0.4684
     33 C          63.2255   84.5591    8.9178 C.3     1  UNL1        0.2526
@<TRIPOS>BOND
     1    21    22    1
     2    22    12    1
     3    12    13   ar
     4    13    14   ar
     5    14     1    1
     6     1     2    2
     7     1     3   am
     8     3     4    1
     9     4     5    1
    10     5     6    1
    11     6     7   ar
    12     7     8   ar
    13     8     9   ar
    14     9    10   ar
    15    10    11    1
    16    11    23    1
    17    23    24    1
    18    24    25   ar
    19    25    26   ar
    20    26    27   ar
    21    27    30    1
    22    30    31    1
    23    27    28   ar
    24    28    32    1
    25    32    33    1
    26    28    29   ar
    27    14    15   ar
    28    15    16   ar
    29    16    17   ar
    30    17    18   ar
    31    18    19   ar
    32    19    20   ar
    33    20    12   ar
    34    11     3    1
    35    29    24   ar
    36    20    15   ar
    37    10     6   ar
@<TRIPOS>MOLECULE
*****
 33 37 0 0 0
SMALL
GASTEIGER

@<TRIPOS>ATOM
      1 C          62.9892   85.9778   13.0525 C.2     1  UNL1        0.2507
      2 O          63.9086   86.6340   14.0394 O.2     1  UNL1       -0.2698
      3 N          62.2319   86.8129   12.0629 N.am    1  UNL1       -0.2727
      4 C          61.3125   86.1568   11.0760 C.3     1  UNL1        0.0987
      5 C          60.5552   86.9918   10.0864 C.3     1  UNL1        0.0481
      6 C          60.7175   88.4830   10.0838 C.ar    1  UNL1       -0.0164
      7 C          60.1066   89.5576    9.2340 C.ar    1  UNL1        0.0030
      8 C          60.6485   90.8779    9.6958 C.ar    1  UNL1        0.0348
      9 S          61.5943   90.6193   10.8310 S.2     1  UNL1       -0.0895
     10 C          61.6369   89.1391   11.0708 C.ar    1  UNL1        0.0217
     11 C          62.3942   88.3041   12.0604 C.3     1  UNL1        0.1081
     12 N          62.2573   82.2279   13.7363 N.ar    1  UNL1       -0.3259
     13 C          62.2137   83.6684   14.1525 C.ar    1  UNL1        0.0804
     14 C          62.8270   84.4866   13.0551 C.ar    1  UNL1        0.0721
     15 C          63.2497   83.5519   11.9607 C.ar    1  UNL1        0.0216
     16 C          63.9097   83.7916   10.6353 C.ar    1  UNL1        0.0016
     17 C          64.2176   82.6353    9.7308 C.ar    1  UNL1        0.0001
     18 C          63.8655   81.2393   10.1518 C.ar    1  UNL1        0.0015
     19 C          63.2055   80.9996   11.4773 C.ar    1  UNL1        0.0172
     20 C          62.8976   82.1559   12.3817 C.ar    1  UNL1        0.0601
     21 C          60.4522   80.4088   14.1637 C.3     1  UNL1        0.0265
     22 C          61.7497   81.0638   14.5345 C.3     1  UNL1        0.1061
     23 C          63.3136   88.9603   13.0473 C.3     1  UNL1        0.0513
     24 C          64.0131   90.2372   12.6866 C.ar    1  UNL1       -0.0169
     25 C          64.0801   90.6768   11.2541 C.ar    1  UNL1       -0.0009
     26 C          64.7797   91.9537   10.8933 C.ar    1  UNL1        0.0397
     27 C          65.4121   92.7910   11.9652 C.ar    1  UNL1        0.1724
     28 C          65.3451   92.3515   13.3977 C.ar    1  UNL1        0.1721
     29 C          64.6456   91.0745   13.7585 C.ar    1  UNL1        0.0359
     30 O          66.1116   94.0680   11.6045 O.3     1  UNL1       -0.4684
     31 C          66.4041   94.3828   10.1674 C.3     1  UNL1        0.2526
     32 O          65.9775   93.1888   14.4696 O.3     1  UNL1       -0.4684
     33 C          67.4272   93.0042   14.8080 C.3     1  UNL1        0.2526
@<TRIPOS>BOND
     1    21    22    1
     2    22    12    1
     3    12    13   ar
     4    13    14   ar
     5    14     1    1
     6     1     2    2
     7     1     3   am
     8     3     4    1
     9     4     5    1
    10     5     6    1
    11     6     7   ar
    12     7     8   ar
    13     8     9   ar
    14     9    10   ar
    15    10    11    1
    16    11    23    1
    17    23    24    1
    18    24    25   ar
    19    25    26   ar
    20    26    27   ar
    21    27    30    1
    22    30    31    1
    23    27    28   ar
    24    28    32    1
    25    32    33    1
    26    28    29   ar
    27    14    15   ar
    28    15    16   ar
    29    16    17   ar
    30    17    18   ar
    31    18    19   ar
    32    19    20   ar
    33    20    12   ar
    34    11     3    1
    35    29    24   ar
    36    20    15   ar
    37    10     6   ar
