@<TRIPOS>MOLECULE
*****
 40 43 0 0 0
SMALL
GASTEIGER

@<TRIPOS>ATOM
      1 C          64.9096   92.0375   11.5317 C.3     1  UNL1        0.1695
      2 C          65.6291   92.4099   12.7941 C.3     1  UNL1        0.1271
      3 N          65.3117   92.0095   14.2044 N.am    1  UNL1       -0.2553
      4 C          66.2311   92.5527   15.2577 C.2     1  UNL1        0.2294
      5 O          66.0024   92.2129   16.7008 O.2     1  UNL1       -0.2745
      6 C          64.1964   91.1378   14.7007 C.ar    1  UNL1        0.0676
      7 C          64.2390   90.9898   16.1927 C.ar    1  UNL1        0.0162
      8 C          63.2082   90.1551   16.8932 C.ar    1  UNL1        0.0014
      9 C          62.1348   89.4685   16.1017 C.ar    1  UNL1        0.0014
     10 C          62.0922   89.6166   14.6097 C.ar    1  UNL1        0.0162
     11 C          63.1230   90.4512   13.9092 C.ar    1  UNL1        0.0679
     12 N          62.8999   90.4668   12.4259 N.am    1  UNL1       -0.2517
     13 C          63.6950   91.1727   11.3678 C.2     1  UNL1        0.2493
     14 O          63.2115   90.9896    9.9598 O.2     1  UNL1       -0.2727
     15 C          66.4477   93.7494   10.3262 C.2     1  UNL1        0.2371
     16 O          66.8448   94.3267   11.6526 O.2     1  UNL1       -0.2737
     17 N          65.4802   92.6048   10.2658 N.am    1  UNL1       -0.2959
     18 H          65.2195   92.2260    9.3953 H       1  UNL1        0.1499
     19 C          67.0183   94.3168    9.0603 C.3     1  UNL1        0.1316
     20 C          66.6057   95.6829    8.5979 C.3     1  UNL1        0.0270
     21 C          68.7597   92.3953    8.9003 C.3     1  UNL1        0.0862
     22 N          68.0013   93.5182    8.2567 N.3     1  UNL1       -0.2902
     23 H          67.4842   93.1146    7.4756 H       1  UNL1        0.1237
     24 C          67.3795   93.4356   14.8681 C.3     1  UNL1        0.0856
     25 C          68.6206   93.4671   15.7099 C.3     1  UNL1        0.0091
     26 C          69.2109   92.1874   16.2238 C.3     1  UNL1        0.0005
     27 C          69.2715   94.7782   16.0378 C.3     1  UNL1        0.0005
     28 C          61.7265   89.6711   11.9360 C.3     1  UNL1        0.1278
     29 C          61.9406   88.3193   11.3221 C.ar    1  UNL1        0.0320
     30 C          62.8575   87.3326   11.9822 C.ar    1  UNL1        0.1363
     31 C          63.0717   85.9808   11.3684 C.ar    1  UNL1        0.0366
     32 C          62.3689   85.6157   10.0944 C.ar    1  UNL1        0.0031
     33 C          61.4520   86.6024    9.4343 C.ar    1  UNL1       -0.0001
     34 C          60.7493   86.2373    8.1604 C.ar    1  UNL1       -0.0000
     35 C          59.8324   87.2241    7.5004 C.ar    1  UNL1       -0.0000
     36 C          59.6183   88.5759    8.1142 C.ar    1  UNL1       -0.0000
     37 C          60.3210   88.9409    9.3881 C.ar    1  UNL1       -0.0002
     38 C          61.2379   87.9543   10.0482 C.ar    1  UNL1        0.0006
     39 O          63.5603   87.6976   13.2561 O.3     1  UNL1       -0.4717
     40 C          64.2868   86.9122   14.3074 C.3     1  UNL1        0.2525
@<TRIPOS>BOND
     1    21    22    1
     2    22    19    1
     3    19    20    1
     4    19    15    1
     5    15    16    2
     6    15    17   am
     7     1    17    1
     8     1     2    1
     9     2     3    1
    10     3     4   am
    11     4     5    2
    12     4    24    1
    13    24    25    1
    14    25    26    1
    15    25    27    1
    16     3     6    1
    17     6     7   ar
    18     7     8   ar
    19     8     9   ar
    20     9    10   ar
    21    10    11   ar
    22    11    12    1
    23    12    28    1
    24    28    29    1
    25    29    30   ar
    26    30    39    1
    27    39    40    1
    28    30    31   ar
    29    31    32   ar
    30    32    33   ar
    31    33    34   ar
    32    34    35   ar
    33    35    36   ar
    34    36    37   ar
    35    37    38   ar
    36    12    13   am
    37    13    14    2
    38    13     1    1
    39    11     6   ar
    40    38    29   ar
    41    38    33   ar
    42    22    23    1
    43    17    18    1
@<TRIPOS>MOLECULE
*****
 40 43 0 0 0
SMALL
GASTEIGER

@<TRIPOS>ATOM
      1 C          62.7001   85.7406   12.7452 C.3     1  UNL1        0.1695
      2 C          61.9067   86.2029   11.5590 C.3     1  UNL1        0.1271
      3 N          61.8618   87.5677   10.9384 N.am    1  UNL1       -0.2553
      4 C          60.9604   87.7120    9.7481 C.2     1  UNL1        0.2294
      5 O          60.8424   89.0359    9.0527 O.2     1  UNL1       -0.2745
      6 C          62.5991   88.8073   11.3505 C.ar    1  UNL1        0.0676
      7 C          62.2676   89.9649   10.4561 C.ar    1  UNL1        0.0162
      8 C          62.9005   91.3035   10.6963 C.ar    1  UNL1        0.0014
      9 C          63.8648   91.4844   11.8309 C.ar    1  UNL1        0.0014
     10 C          64.1963   90.3268   12.7253 C.ar    1  UNL1        0.0162
     11 C          63.5634   88.9882   12.4851 C.ar    1  UNL1        0.0679
     12 N          64.0286   87.9742   13.4878 N.am    1  UNL1       -0.2517
     13 C          63.6444   86.5289   13.6036 C.2     1  UNL1        0.2493
     14 O          64.2898   85.7718   14.7261 O.2     1  UNL1       -0.2727
     15 C          62.9611   83.2186   12.1780 C.2     1  UNL1        0.2371
     16 O          63.5701   83.5791   10.8554 O.2     1  UNL1       -0.2737
     17 N          62.5261   84.2994   13.1229 N.am    1  UNL1       -0.2959
     18 H          62.1263   84.0628   13.9909 H       1  UNL1        0.1499
     19 C          62.7871   81.7774   12.5557 C.3     1  UNL1        0.1316
     20 C          63.0654   80.6997   11.5502 C.3     1  UNL1        0.0270
     21 C          60.9439   80.8984   14.1619 C.3     1  UNL1        0.0862
     22 N          62.3347   81.4139   13.9389 N.3     1  UNL1       -0.2902
     23 H          62.9733   80.6945   14.2780 H       1  UNL1        0.1237
     24 C          60.1769   86.5325    9.2533 C.3     1  UNL1        0.0856
     25 C          59.9397   86.3530    7.7830 C.3     1  UNL1        0.0091
     26 C          60.7237   85.3296    7.0163 C.3     1  UNL1        0.0005
     27 C          58.9186   87.1971    7.0795 C.3     1  UNL1        0.0005
     28 C          65.0075   88.4713   14.5099 C.3     1  UNL1        0.1278
     29 C          64.7559   89.7680   15.2209 C.ar    1  UNL1        0.0320
     30 C          63.5551   89.9164   16.1074 C.ar    1  UNL1        0.1363
     31 C          63.3035   91.2130   16.8185 C.ar    1  UNL1        0.0366
     32 C          64.2528   92.3611   16.6430 C.ar    1  UNL1        0.0031
     33 C          65.4537   92.2126   15.7565 C.ar    1  UNL1       -0.0001
     34 C          66.4030   93.3606   15.5811 C.ar    1  UNL1       -0.0000
     35 C          67.6038   93.2120   14.6946 C.ar    1  UNL1       -0.0000
     36 C          67.8554   91.9155   13.9835 C.ar    1  UNL1       -0.0000
     37 C          66.9061   90.7675   14.1590 C.ar    1  UNL1       -0.0002
     38 C          65.7053   90.9160   15.0455 C.ar    1  UNL1        0.0006
     39 O          62.6057   88.7684   16.2829 O.3     1  UNL1       -0.4717
     40 C          62.6033   87.5405   17.1444 C.3     1  UNL1        0.2525
@<TRIPOS>BOND
     1    21    22    1
     2    22    19    1
     3    19    20    1
     4    19    15    1
     5    15    16    2
     6    15    17   am
     7     1    17    1
     8     1     2    1
     9     2     3    1
    10     3     4   am
    11     4     5    2
    12     4    24    1
    13    24    25    1
    14    25    26    1
    15    25    27    1
    16     3     6    1
    17     6     7   ar
    18     7     8   ar
    19     8     9   ar
    20     9    10   ar
    21    10    11   ar
    22    11    12    1
    23    12    28    1
    24    28    29    1
    25    29    30   ar
    26    30    39    1
    27    39    40    1
    28    30    31   ar
    29    31    32   ar
    30    32    33   ar
    31    33    34   ar
    32    34    35   ar
    33    35    36   ar
    34    36    37   ar
    35    37    38   ar
    36    12    13   am
    37    13    14    2
    38    13     1    1
    39    11     6   ar
    40    38    29   ar
    41    38    33   ar
    42    22    23    1
    43    17    18    1
@<TRIPOS>MOLECULE
*****
 40 43 0 0 0
SMALL
GASTEIGER

@<TRIPOS>ATOM
      1 C          64.9270   91.9584   11.5257 C.3     1  UNL1        0.1695
      2 C          65.6193   92.3600   12.7943 C.3     1  UNL1        0.1271
      3 N          65.2894   91.9681   14.2041 N.am    1  UNL1       -0.2553
      4 C          66.1811   92.5424   15.2648 C.2     1  UNL1        0.2294
      5 O          65.9380   92.2134   16.7080 O.2     1  UNL1       -0.2745
      6 C          64.1857   91.0780   14.6936 C.ar    1  UNL1        0.0676
      7 C          64.2091   90.9470   16.1876 C.ar    1  UNL1        0.0162
      8 C          63.1860   90.0979   16.8821 C.ar    1  UNL1        0.0014
      9 C          62.1396   89.3798   16.0826 C.ar    1  UNL1        0.0014
     10 C          62.1163   89.5107   14.5885 C.ar    1  UNL1        0.0162
     11 C          63.1393   90.3598   13.8940 C.ar    1  UNL1        0.0679
     12 N          62.9382   90.3544   12.4076 N.am    1  UNL1       -0.2517
     13 C          63.7337   91.0658   11.3535 C.2     1  UNL1        0.2493
     14 O          63.2755   90.8571    9.9406 O.2     1  UNL1       -0.2727
     15 C          66.4453   93.6905   10.3239 C.2     1  UNL1        0.2371
     16 O          66.8093   94.2911   11.6494 O.2     1  UNL1       -0.2737
     17 N          65.5041   92.5242   10.2621 N.am    1  UNL1       -0.2959
     18 H          65.2652   92.1301    9.3921 H       1  UNL1        0.1499
     19 C          67.0225   94.2564    9.0603 C.3     1  UNL1        0.1316
     20 C          66.5985   95.6143    8.5844 C.3     1  UNL1        0.0270
     21 C          68.7959   92.3619    8.9345 C.3     1  UNL1        0.0862
     22 N          68.0236   93.4644    8.2727 N.3     1  UNL1       -0.2902
     23 H          67.5183   93.0431    7.4933 H       1  UNL1        0.1237
     24 C          67.3160   93.4457   14.8824 C.3     1  UNL1        0.0856
     25 C          68.5706   93.4629   15.7044 C.3     1  UNL1        0.0091
     26 C          69.1608   92.1757   16.1991 C.3     1  UNL1        0.0005
     27 C          69.2349   94.7674   16.0316 C.3     1  UNL1        0.0005
     28 C          61.7896   89.5283   11.9092 C.3     1  UNL1        0.1278
     29 C          62.0483   88.2149   11.2324 C.ar    1  UNL1        0.0320
     30 C          61.5948   87.9973    9.8193 C.ar    1  UNL1        0.1363
     31 C          61.8535   86.6839    9.1425 C.ar    1  UNL1        0.0366
     32 C          62.5657   85.5881    9.8788 C.ar    1  UNL1        0.0031
     33 C          63.0192   85.8058   11.2920 C.ar    1  UNL1       -0.0001
     34 C          63.7313   84.7100   12.0283 C.ar    1  UNL1       -0.0000
     35 C          64.1848   84.9277   13.4414 C.ar    1  UNL1       -0.0000
     36 C          63.9261   86.2411   14.1183 C.ar    1  UNL1       -0.0000
     37 C          63.2139   87.3368   13.3819 C.ar    1  UNL1       -0.0002
     38 C          62.7605   87.1192   11.9688 C.ar    1  UNL1        0.0006
     39 O          60.8827   89.0930    9.0829 O.3     1  UNL1       -0.4717
     40 C          59.8141   89.1178    8.0306 C.3     1  UNL1        0.2525
@<TRIPOS>BOND
     1    21    22    1
     2    22    19    1
     3    19    20    1
     4    19    15    1
     5    15    16    2
     6    15    17   am
     7     1    17    1
     8     1     2    1
     9     2     3    1
    10     3     4   am
    11     4     5    2
    12     4    24    1
    13    24    25    1
    14    25    26    1
    15    25    27    1
    16     3     6    1
    17     6     7   ar
    18     7     8   ar
    19     8     9   ar
    20     9    10   ar
    21    10    11   ar
    22    11    12    1
    23    12    28    1
    24    28    29    1
    25    29    30   ar
    26    30    39    1
    27    39    40    1
    28    30    31   ar
    29    31    32   ar
    30    32    33   ar
    31    33    34   ar
    32    34    35   ar
    33    35    36   ar
    34    36    37   ar
    35    37    38   ar
    36    12    13   am
    37    13    14    2
    38    13     1    1
    39    11     6   ar
    40    38    29   ar
    41    38    33   ar
    42    22    23    1
    43    17    18    1
@<TRIPOS>MOLECULE
*****
 40 43 0 0 0
SMALL
GASTEIGER

@<TRIPOS>ATOM
      1 C          62.9381   86.1162   11.3367 C.3     1  UNL1        0.1695
      2 C          63.2715   84.9488   12.2176 C.3     1  UNL1        0.1271
      3 N          63.4836   84.9281   13.7024 N.am    1  UNL1       -0.2553
      4 C          63.8074   83.5887   14.2950 C.2     1  UNL1        0.2294
      5 O          64.0381   83.4576   15.7714 O.2     1  UNL1       -0.2745
      6 C          63.4147   86.0697   14.6730 C.ar    1  UNL1        0.0676
      7 C          63.6932   85.6146   16.0749 C.ar    1  UNL1        0.0162
      8 C          63.6738   86.6038   17.2023 C.ar    1  UNL1        0.0014
      9 C          63.3758   88.0481   16.9278 C.ar    1  UNL1        0.0014
     10 C          63.0973   88.5032   15.5259 C.ar    1  UNL1        0.0162
     11 C          63.1168   87.5139   14.3986 C.ar    1  UNL1        0.0679
     12 N          62.8141   88.1733   13.0856 N.am    1  UNL1       -0.2517
     13 C          62.7346   87.5513   11.7230 C.2     1  UNL1        0.2493
     14 O          62.4084   88.4881   10.5979 O.2     1  UNL1       -0.2727
     15 C          61.4357   85.8692    9.2316 C.2     1  UNL1        0.2371
     16 O          60.2322   86.2389   10.0472 O.2     1  UNL1       -0.2737
     17 N          62.7886   85.8078    9.8764 N.am    1  UNL1       -0.2959
     18 H          63.5784   85.5651    9.3412 H       1  UNL1        0.1499
     19 C          61.2861   85.5608    7.7713 C.3     1  UNL1        0.1316
     20 C          62.4437   84.9977    7.0013 C.3     1  UNL1        0.0270
     21 C          59.1549   87.0122    7.4533 C.3     1  UNL1        0.0862
     22 N          59.9790   85.8155    7.0810 N.3     1  UNL1       -0.2902
     23 H          60.1830   85.8968    6.0849 H       1  UNL1        0.1237
     24 C          63.9004   82.3802   13.4112 C.3     1  UNL1        0.0856
     25 C          62.7418   81.4328   13.3118 C.3     1  UNL1        0.0091
     26 C          62.7213   80.3830   12.2406 C.3     1  UNL1        0.0005
     27 C          61.6037   81.5351   14.2836 C.3     1  UNL1        0.0005
     28 C          62.5569   89.6499   13.1430 C.3     1  UNL1        0.1278
     29 C          63.4030   90.5906   12.3371 C.ar    1  UNL1        0.0320
     30 C          62.9323   91.0567   10.9913 C.ar    1  UNL1        0.1363
     31 C          63.7783   91.9973   10.1853 C.ar    1  UNL1        0.0366
     32 C          65.0950   92.4717   10.7252 C.ar    1  UNL1        0.0031
     33 C          65.5656   92.0055   12.0710 C.ar    1  UNL1       -0.0001
     34 C          66.8822   92.4799   12.6109 C.ar    1  UNL1       -0.0000
     35 C          67.3528   92.0136   13.9567 C.ar    1  UNL1       -0.0000
     36 C          66.5068   91.0730   14.7627 C.ar    1  UNL1       -0.0000
     37 C          65.1901   90.5987   14.2227 C.ar    1  UNL1       -0.0002
     38 C          64.7196   91.0649   12.8770 C.ar    1  UNL1        0.0006
     39 O          61.6157   90.5824   10.4514 O.3     1  UNL1       -0.4717
     40 C          60.1907   90.7411   10.8918 C.3     1  UNL1        0.2525
@<TRIPOS>BOND
     1    21    22    1
     2    22    19    1
     3    19    20    1
     4    19    15    1
     5    15    16    2
     6    15    17   am
     7     1    17    1
     8     1     2    1
     9     2     3    1
    10     3     4   am
    11     4     5    2
    12     4    24    1
    13    24    25    1
    14    25    26    1
    15    25    27    1
    16     3     6    1
    17     6     7   ar
    18     7     8   ar
    19     8     9   ar
    20     9    10   ar
    21    10    11   ar
    22    11    12    1
    23    12    28    1
    24    28    29    1
    25    29    30   ar
    26    30    39    1
    27    39    40    1
    28    30    31   ar
    29    31    32   ar
    30    32    33   ar
    31    33    34   ar
    32    34    35   ar
    33    35    36   ar
    34    36    37   ar
    35    37    38   ar
    36    12    13   am
    37    13    14    2
    38    13     1    1
    39    11     6   ar
    40    38    29   ar
    41    38    33   ar
    42    22    23    1
    43    17    18    1
@<TRIPOS>MOLECULE
*****
 40 43 0 0 0
SMALL
GASTEIGER

@<TRIPOS>ATOM
      1 C          63.4303   88.7988   13.9051 C.3     1  UNL1        0.1695
      2 C          63.5245   87.6405   14.8535 C.3     1  UNL1        0.1271
      3 N          63.4206   86.1747   14.5526 N.am    1  UNL1       -0.2553
      4 C          63.5588   85.2571   15.7311 C.2     1  UNL1        0.2294
      5 O          63.4704   83.7719   15.5397 O.2     1  UNL1       -0.2745
      6 C          63.1969   85.5051   13.2291 C.ar    1  UNL1        0.0676
      7 C          63.1576   84.0122   13.3699 C.ar    1  UNL1        0.0162
      8 C          62.9431   83.1503   12.1612 C.ar    1  UNL1        0.0014
      9 C          62.7679   83.7812   10.8117 C.ar    1  UNL1        0.0014
     10 C          62.8073   85.2741   10.6708 C.ar    1  UNL1        0.0162
     11 C          63.0217   86.1360   11.8796 C.ar    1  UNL1        0.0679
     12 N          63.0271   87.5923   11.5203 N.am    1  UNL1       -0.2517
     13 C          63.2089   88.7774   12.4216 C.2     1  UNL1        0.2493
     14 O          63.1633   90.1183   11.7509 O.2     1  UNL1       -0.2727
     15 C          64.9404   90.6900   14.8500 C.2     1  UNL1        0.2371
     16 O          66.1576   89.8620   14.5618 O.2     1  UNL1       -0.2737
     17 N          63.5768   90.1584   14.5216 N.am    1  UNL1       -0.2959
     18 H          62.7780   90.7018   14.7108 H       1  UNL1        0.1499
     19 C          65.0870   92.0495   15.4666 C.3     1  UNL1        0.1316
     20 C          64.5379   92.3146   16.8371 C.3     1  UNL1        0.0270
     21 C          67.2348   93.4221   14.9641 C.3     1  UNL1        0.0862
     22 N          65.7825   93.1440   14.7126 N.3     1  UNL1       -0.2902
     23 H          65.6926   92.9217   13.7212 H       1  UNL1        0.1237
     24 C          63.7853   85.8245   17.1011 C.3     1  UNL1        0.0856
     25 C          62.6494   86.4593   17.8472 C.3     1  UNL1        0.0091
     26 C          62.8709   87.0074   19.2257 C.3     1  UNL1        0.0005
     27 C          61.2919   86.5458   17.2148 C.3     1  UNL1        0.0005
     28 C          62.8237   87.9049   10.0673 C.3     1  UNL1        0.1278
     29 C          61.5495   87.5037    9.3850 C.ar    1  UNL1        0.0320
     30 C          60.2588   88.1735    9.7530 C.ar    1  UNL1        0.1363
     31 C          58.9846   87.7724    9.0707 C.ar    1  UNL1        0.0366
     32 C          59.0011   86.7016    8.0205 C.ar    1  UNL1        0.0031
     33 C          60.2919   86.0318    7.6525 C.ar    1  UNL1       -0.0001
     34 C          60.3084   84.9609    6.6023 C.ar    1  UNL1       -0.0000
     35 C          61.5992   84.2912    6.2344 C.ar    1  UNL1       -0.0000
     36 C          62.8734   84.6923    6.9166 C.ar    1  UNL1       -0.0000
     37 C          62.8568   85.7631    7.9668 C.ar    1  UNL1       -0.0002
     38 C          61.5661   86.4329    8.3348 C.ar    1  UNL1        0.0006
     39 O          60.2422   89.2444   10.8032 O.3     1  UNL1       -0.4717
     40 C          59.4824   89.4383   12.0819 C.3     1  UNL1        0.2525
@<TRIPOS>BOND
     1    21    22    1
     2    22    19    1
     3    19    20    1
     4    19    15    1
     5    15    16    2
     6    15    17   am
     7     1    17    1
     8     1     2    1
     9     2     3    1
    10     3     4   am
    11     4     5    2
    12     4    24    1
    13    24    25    1
    14    25    26    1
    15    25    27    1
    16     3     6    1
    17     6     7   ar
    18     7     8   ar
    19     8     9   ar
    20     9    10   ar
    21    10    11   ar
    22    11    12    1
    23    12    28    1
    24    28    29    1
    25    29    30   ar
    26    30    39    1
    27    39    40    1
    28    30    31   ar
    29    31    32   ar
    30    32    33   ar
    31    33    34   ar
    32    34    35   ar
    33    35    36   ar
    34    36    37   ar
    35    37    38   ar
    36    12    13   am
    37    13    14    2
    38    13     1    1
    39    11     6   ar
    40    38    29   ar
    41    38    33   ar
    42    22    23    1
    43    17    18    1
@<TRIPOS>MOLECULE
*****
 40 43 0 0 0
SMALL
GASTEIGER

@<TRIPOS>ATOM
      1 C          61.7795   86.0978   10.8484 C.3     1  UNL1        0.1695
      2 C          62.5015   84.9023   11.3959 C.3     1  UNL1        0.1271
      3 N          63.4285   84.8278   12.5728 N.am    1  UNL1       -0.2553
      4 C          63.9966   83.4715   12.8688 C.2     1  UNL1        0.2294
      5 O          64.9348   83.2872   14.0247 O.2     1  UNL1       -0.2745
      6 C          63.8625   85.9301   13.4929 C.ar    1  UNL1        0.0676
      7 C          64.8026   85.4257   14.5472 C.ar    1  UNL1        0.0162
      8 C          65.3569   86.3705   15.5719 C.ar    1  UNL1        0.0014
      9 C          64.9711   87.8197   15.5423 C.ar    1  UNL1        0.0014
     10 C          64.0310   88.3242   14.4879 C.ar    1  UNL1        0.0162
     11 C          63.4767   87.3794   13.4632 C.ar    1  UNL1        0.0679
     12 N          62.5616   88.0841   12.5062 N.am    1  UNL1       -0.2517
     13 C          61.8062   87.5138   11.3425 C.2     1  UNL1        0.2493
     14 O          60.9667   88.4883   10.5709 O.2     1  UNL1       -0.2727
     15 C          61.5474   85.6016    8.3087 C.2     1  UNL1        0.2371
     16 O          63.0410   85.6139    8.1698 O.2     1  UNL1       -0.2737
     17 N          60.9167   85.8435    9.6480 N.am    1  UNL1       -0.2959
     18 H          59.9365   85.8355    9.7391 H       1  UNL1        0.1499
     19 C          60.6846   85.3473    7.1083 C.3     1  UNL1        0.1316
     20 C          61.2208   84.5537    5.9538 C.3     1  UNL1        0.0270
     21 C          59.0148   87.3045    7.4700 C.3     1  UNL1        0.0862
     22 N          59.2857   85.8867    7.0624 N.3     1  UNL1       -0.2902
     23 H          58.9647   85.7908    6.0990 H       1  UNL1        0.1237
     24 C          63.6266   82.2993   12.0090 C.3     1  UNL1        0.0856
     25 C          62.7240   81.2292   12.5478 C.3     1  UNL1        0.0091
     26 C          61.8439   81.5148   13.7284 C.3     1  UNL1        0.0005
     27 C          62.7016   79.8737   11.9060 C.3     1  UNL1        0.0005
     28 C          62.3774   89.5536   12.7444 C.3     1  UNL1        0.1278
     29 C          63.3338   90.5374   12.1380 C.ar    1  UNL1        0.0320
     30 C          63.2957   90.8088   10.6633 C.ar    1  UNL1        0.1363
     31 C          64.2520   91.7926   10.0569 C.ar    1  UNL1        0.0366
     32 C          65.2463   92.5049   10.9252 C.ar    1  UNL1        0.0031
     33 C          65.2843   92.2335   12.4000 C.ar    1  UNL1       -0.0001
     34 C          66.2785   92.9459   13.2683 C.ar    1  UNL1       -0.0000
     35 C          66.3164   92.6744   14.7431 C.ar    1  UNL1       -0.0000
     36 C          65.3601   91.6907   15.3495 C.ar    1  UNL1       -0.0000
     37 C          64.3659   90.9783   14.4811 C.ar    1  UNL1       -0.0002
     38 C          64.3280   91.2497   13.0064 C.ar    1  UNL1        0.0006
     39 O          62.3015   90.0965    9.7949 O.3     1  UNL1       -0.4717
     40 C          60.9011   90.3985    9.3504 C.3     1  UNL1        0.2525
@<TRIPOS>BOND
     1    21    22    1
     2    22    19    1
     3    19    20    1
     4    19    15    1
     5    15    16    2
     6    15    17   am
     7     1    17    1
     8     1     2    1
     9     2     3    1
    10     3     4   am
    11     4     5    2
    12     4    24    1
    13    24    25    1
    14    25    26    1
    15    25    27    1
    16     3     6    1
    17     6     7   ar
    18     7     8   ar
    19     8     9   ar
    20     9    10   ar
    21    10    11   ar
    22    11    12    1
    23    12    28    1
    24    28    29    1
    25    29    30   ar
    26    30    39    1
    27    39    40    1
    28    30    31   ar
    29    31    32   ar
    30    32    33   ar
    31    33    34   ar
    32    34    35   ar
    33    35    36   ar
    34    36    37   ar
    35    37    38   ar
    36    12    13   am
    37    13    14    2
    38    13     1    1
    39    11     6   ar
    40    38    29   ar
    41    38    33   ar
    42    22    23    1
    43    17    18    1
@<TRIPOS>MOLECULE
*****
 40 43 0 0 0
SMALL
GASTEIGER

@<TRIPOS>ATOM
      1 C          62.7773   85.9729   11.4451 C.3     1  UNL1        0.1695
      2 C          62.0822   85.7780   10.1303 C.3     1  UNL1        0.1271
      3 N          61.2072   86.7405    9.3834 N.am    1  UNL1       -0.2553
      4 C          60.6552   86.2420    8.0807 C.2     1  UNL1        0.2294
      5 O          59.7682   87.1258    7.2546 O.2     1  UNL1       -0.2745
      6 C          60.8112   88.1356    9.7667 C.ar    1  UNL1        0.0676
      7 C          59.9187   88.7556    8.7328 C.ar    1  UNL1        0.0162
      8 C          59.4074   90.1527    8.9239 C.ar    1  UNL1        0.0014
      9 C          59.7886   90.9298   10.1490 C.ar    1  UNL1        0.0014
     10 C          60.6812   90.3099   11.1829 C.ar    1  UNL1        0.0162
     11 C          61.1924   88.9127   10.9917 C.ar    1  UNL1        0.0679
     12 N          62.0638   88.4867   12.1359 N.am    1  UNL1       -0.2517
     13 C          62.7692   87.1784   12.3378 C.2     1  UNL1        0.2493
     14 O          63.5726   87.0598   13.5989 O.2     1  UNL1       -0.2727
     15 C          63.1506   84.0458   13.1472 C.2     1  UNL1        0.2371
     16 O          61.9029   84.4480   13.8762 O.2     1  UNL1       -0.2737
     17 N          63.5878   84.8083   11.9317 N.am    1  UNL1       -0.2959
     18 H          64.4068   84.5443   11.4533 H       1  UNL1        0.1499
     19 C          63.9611   82.8812   13.6338 C.3     1  UNL1        0.1316
     20 C          64.6175   82.9351   14.9815 C.3     1  UNL1        0.0270
     21 C          62.9004   80.9573   12.2470 C.3     1  UNL1        0.0862
     22 N          64.1153   81.6627   12.7727 N.3     1  UNL1       -0.2902
     23 H          64.6669   81.9431   11.9618 H       1  UNL1        0.1237
     24 C          60.9900   84.8596    7.6042 C.3     1  UNL1        0.0856
     25 C          62.1551   84.6452    6.6841 C.3     1  UNL1        0.0091
     26 C          63.5540   84.8497    7.1854 C.3     1  UNL1        0.0005
     27 C          61.9213   84.2263    5.2629 C.3     1  UNL1        0.0005
     28 C          62.2551   89.5035   13.2220 C.3     1  UNL1        0.1278
     29 C          63.6094   90.1043   13.4569 C.ar    1  UNL1        0.0320
     30 C          64.3643   89.7838   14.7129 C.ar    1  UNL1        0.1363
     31 C          65.7185   90.3845   14.9479 C.ar    1  UNL1        0.0366
     32 C          66.3178   91.3056   13.9270 C.ar    1  UNL1        0.0031
     33 C          65.5629   91.6261   12.6710 C.ar    1  UNL1       -0.0001
     34 C          66.1622   92.5473   11.6500 C.ar    1  UNL1       -0.0000
     35 C          65.4072   92.8677   10.3941 C.ar    1  UNL1       -0.0000
     36 C          64.0530   92.2670   10.1591 C.ar    1  UNL1       -0.0000
     37 C          63.4538   91.3458   11.1801 C.ar    1  UNL1       -0.0002
     38 C          64.2086   91.0254   12.4359 C.ar    1  UNL1        0.0006
     39 O          63.7651   88.8626   15.7339 O.3     1  UNL1       -0.4717
     40 C          63.0439   89.0737   17.0320 C.3     1  UNL1        0.2525
@<TRIPOS>BOND
     1    21    22    1
     2    22    19    1
     3    19    20    1
     4    19    15    1
     5    15    16    2
     6    15    17   am
     7     1    17    1
     8     1     2    1
     9     2     3    1
    10     3     4   am
    11     4     5    2
    12     4    24    1
    13    24    25    1
    14    25    26    1
    15    25    27    1
    16     3     6    1
    17     6     7   ar
    18     7     8   ar
    19     8     9   ar
    20     9    10   ar
    21    10    11   ar
    22    11    12    1
    23    12    28    1
    24    28    29    1
    25    29    30   ar
    26    30    39    1
    27    39    40    1
    28    30    31   ar
    29    31    32   ar
    30    32    33   ar
    31    33    34   ar
    32    34    35   ar
    33    35    36   ar
    34    36    37   ar
    35    37    38   ar
    36    12    13   am
    37    13    14    2
    38    13     1    1
    39    11     6   ar
    40    38    29   ar
    41    38    33   ar
    42    22    23    1
    43    17    18    1
