@<TRIPOS>MOLECULE
*****
 37 42 0 0 0
SMALL
GASTEIGER

@<TRIPOS>ATOM
      1 N          63.9675   90.0010   15.1778 N.pl3   1  UNL1       -0.2824
      2 H          64.1519   90.7078   15.8379 H       1  UNL1        0.1551
      3 C          64.0576   86.0365   15.3339 C.ar    1  UNL1        0.1397
      4 C          63.2171   85.7815   16.5498 C.ar    1  UNL1        0.0554
      5 C          62.6267   86.9330   17.3084 C.ar    1  UNL1        0.1047
      6 N          62.8768   88.3395   16.8511 N.ar    1  UNL1       -0.2119
      7 C          63.7174   88.5945   15.6351 C.ar    1  UNL1        0.2218
      8 N          64.3078   87.4430   14.8765 N.ar    1  UNL1       -0.1983
      9 C          66.1206   84.8496   14.2919 C.3     1  UNL1        0.1184
     10 N          64.6480   84.8850   14.5753 N.pl3   1  UNL1       -0.2734
     11 C          63.7658   83.7688   14.1000 C.2     1  UNL1        0.0411
     12 C          62.7449   83.1742   15.0242 C.2     1  UNL1        0.0112
     13 C          61.8628   82.0581   14.5490 C.2     1  UNL1        0.0023
     14 C          62.0015   81.5364   13.1494 C.2     1  UNL1        0.0173
     15 C          63.0224   82.1309   12.2252 C.2     1  UNL1        0.0912
     16 N          63.3865   81.8260   10.8024 N.2     1  UNL1       -0.1519
     17 N          64.4937   82.7538   10.3983 N.2     1  UNL1       -0.1507
     18 C          64.8139   83.6321   11.5714 C.2     1  UNL1        0.1070
     19 C          63.9046   83.2471   12.7005 C.3     1  UNL1        0.1210
     20 C          63.9367   90.3307   13.7148 C.ar    1  UNL1        0.0529
     21 C          62.9879   89.6102   12.8035 C.ar    1  UNL1        0.0293
     22 C          62.9572   89.9398   11.3405 C.ar    1  UNL1        0.0505
     23 C          63.8753   90.9899   10.7889 C.ar    1  UNL1        0.0291
     24 C          64.8241   91.7105   11.7002 C.ar    1  UNL1        0.0505
     25 C          64.8549   91.3808   13.1632 C.ar    1  UNL1        0.0293
     26 N          62.0083   89.2193   10.4291 N.pl3   1  UNL1       -0.3027
     27 C          60.9341   89.9811    9.7110 C.3     1  UNL1        0.1231
     28 C          59.9852   89.2607    8.7996 C.3     1  UNL1        0.1636
     29 O          60.1106   87.7786    8.6062 O.3     1  UNL1       -0.3501
     30 C          61.1849   87.0168    9.3243 C.3     1  UNL1        0.1636
     31 C          62.1337   87.7372   10.2357 C.3     1  UNL1        0.1231
     32 N          65.7422   92.7606   11.1486 N.pl3   1  UNL1       -0.3027
     33 C          66.8143   92.3808   10.1707 C.3     1  UNL1        0.1231
     34 C          67.7324   93.4310    9.6190 C.3     1  UNL1        0.1636
     35 O          67.5784   94.8608   10.0453 O.3     1  UNL1       -0.3501
     36 C          66.5062   95.2406   11.0231 C.3     1  UNL1        0.1636
     37 C          65.5881   94.1905   11.5748 C.3     1  UNL1        0.1231
@<TRIPOS>BOND
     1     9    10    1
     2    10     3    1
     3     3     4   ar
     4     4     5   ar
     5     5     6   ar
     6     6     7   ar
     7     7     1    1
     8     1    20    1
     9    20    21   ar
    10    21    22   ar
    11    22    26    1
    12    26    27    1
    13    27    28    1
    14    28    29    1
    15    29    30    1
    16    30    31    1
    17    22    23   ar
    18    23    24   ar
    19    24    32    1
    20    32    33    1
    21    33    34    1
    22    34    35    1
    23    35    36    1
    24    36    37    1
    25    24    25   ar
    26     7     8   ar
    27    10    11    1
    28    11    12    2
    29    12    13    1
    30    13    14    2
    31    14    15    1
    32    15    16    2
    33    16    17    1
    34    17    18    2
    35    18    19    1
    36     8     3   ar
    37    19    11    1
    38    25    20   ar
    39    19    15    1
    40    31    26    1
    41    37    32    1
    42     1     2    1
@<TRIPOS>MOLECULE
*****
 37 42 0 0 0
SMALL
GASTEIGER

@<TRIPOS>ATOM
      1 N          63.9775   89.9979   15.1710 N.pl3   1  UNL1       -0.2824
      2 H          64.1646   90.7055   15.8294 H       1  UNL1        0.1551
      3 C          64.0639   86.0337   15.3361 C.ar    1  UNL1        0.1397
      4 C          63.2223   85.7822   16.5519 C.ar    1  UNL1        0.0554
      5 C          62.6324   86.9359   17.3074 C.ar    1  UNL1        0.1047
      6 N          62.8841   88.3411   16.8471 N.ar    1  UNL1       -0.2119
      7 C          63.7258   88.5927   15.6313 C.ar    1  UNL1        0.2218
      8 N          64.3157   87.4389   14.8757 N.ar    1  UNL1       -0.1983
      9 C          66.1278   84.8387   14.3052 C.3     1  UNL1        0.1184
     10 N          64.6539   84.8798   14.5805 N.pl3   1  UNL1       -0.2734
     11 C          63.7698   83.7673   14.1002 C.2     1  UNL1        0.0411
     12 C          62.7476   83.1706   15.0216 C.2     1  UNL1        0.0112
     13 C          61.8636   82.0581   14.5414 C.2     1  UNL1        0.0023
     14 C          62.0018   81.5421   13.1397 C.2     1  UNL1        0.0173
     15 C          63.0240   82.1388   12.2183 C.2     1  UNL1        0.0912
     16 N          63.3879   81.8393   10.7942 N.2     1  UNL1       -0.1519
     17 N          64.4969   82.7668   10.3944 N.2     1  UNL1       -0.1507
     18 C          64.8183   83.6395   11.5713 C.2     1  UNL1        0.1070
     19 C          63.9080   83.2514   12.6985 C.3     1  UNL1        0.1210
     20 C          63.9442   90.3250   13.7075 C.ar    1  UNL1        0.0529
     21 C          64.8610   91.3744   13.1525 C.ar    1  UNL1        0.0293
     22 C          64.8277   91.7015   11.6890 C.ar    1  UNL1        0.0505
     23 C          63.8776   90.9792   10.7805 C.ar    1  UNL1        0.0291
     24 C          62.9608   89.9297   11.3354 C.ar    1  UNL1        0.0505
     25 C          62.9940   89.6026   12.7989 C.ar    1  UNL1        0.0293
     26 N          65.7446   92.7510   11.1339 N.pl3   1  UNL1       -0.3027
     27 C          66.8209   92.3684   10.1617 C.3     1  UNL1        0.1231
     28 C          67.7377   93.4178    9.6065 C.3     1  UNL1        0.1636
     29 O          67.5783   94.8498   10.0237 O.3     1  UNL1       -0.3501
     30 C          66.5020   95.2323   10.9960 C.3     1  UNL1        0.1636
     31 C          65.5852   94.1830   11.5510 C.3     1  UNL1        0.1231
     32 N          62.0106   89.2073   10.4269 N.pl3   1  UNL1       -0.3027
     33 C          60.9415   89.9690    9.7012 C.3     1  UNL1        0.1231
     34 C          59.9913   89.2466    8.7926 C.3     1  UNL1        0.1636
     35 O          60.1104   87.7626    8.6099 O.3     1  UNL1       -0.3501
     36 C          61.1795   87.0009    9.3356 C.3     1  UNL1        0.1636
     37 C          62.1296   87.7233   10.2441 C.3     1  UNL1        0.1231
@<TRIPOS>BOND
     1     9    10    1
     2    10     3    1
     3     3     4   ar
     4     4     5   ar
     5     5     6   ar
     6     6     7   ar
     7     7     1    1
     8     1    20    1
     9    20    21   ar
    10    21    22   ar
    11    22    26    1
    12    26    27    1
    13    27    28    1
    14    28    29    1
    15    29    30    1
    16    30    31    1
    17    22    23   ar
    18    23    24   ar
    19    24    32    1
    20    32    33    1
    21    33    34    1
    22    34    35    1
    23    35    36    1
    24    36    37    1
    25    24    25   ar
    26     7     8   ar
    27    10    11    1
    28    11    12    2
    29    12    13    1
    30    13    14    2
    31    14    15    1
    32    15    16    2
    33    16    17    1
    34    17    18    2
    35    18    19    1
    36     8     3   ar
    37    19    11    1
    38    25    20   ar
    39    19    15    1
    40    31    26    1
    41    37    32    1
    42     1     2    1
@<TRIPOS>MOLECULE
*****
 37 42 0 0 0
SMALL
GASTEIGER

@<TRIPOS>ATOM
      1 N          64.5014   85.9063   14.5717 N.pl3   1  UNL1       -0.2824
      2 H          65.2665   85.3977   14.9256 H       1  UNL1        0.1551
      3 C          64.2505   89.8227   15.1621 C.ar    1  UNL1        0.1397
      4 C          63.3971   89.8694   16.3948 C.ar    1  UNL1        0.0554
      5 C          62.9119   88.5952   17.0198 C.ar    1  UNL1        0.1047
      6 N          63.2799   87.2741   16.4121 N.ar    1  UNL1       -0.2119
      7 C          64.1333   87.2273   15.1794 C.ar    1  UNL1        0.2218
      8 N          64.6186   88.5017   14.5543 N.ar    1  UNL1       -0.1983
      9 C          65.4852   92.0998   15.3634 C.3     1  UNL1        0.1184
     10 N          64.7358   91.0971   14.5371 N.pl3   1  UNL1       -0.2734
     11 C          64.4716   91.3686   13.0857 C.2     1  UNL1        0.0411
     12 C          63.3604   90.6509   12.3785 C.2     1  UNL1        0.0112
     13 C          63.0962   90.9224   10.9272 C.2     1  UNL1        0.0023
     14 C          63.9433   91.9117   10.1829 C.2     1  UNL1        0.0173
     15 C          65.0545   92.6294   10.8901 C.2     1  UNL1        0.0912
     16 N          66.0481   93.6506   10.4212 N.2     1  UNL1       -0.1519
     17 N          66.9264   94.0102   11.5828 N.2     1  UNL1       -0.1507
     18 C          66.4756   93.2112   12.7696 C.2     1  UNL1        0.1070
     19 C          65.3187   92.3579   12.3415 C.3     1  UNL1        0.1210
     20 C          63.7038   85.3600   13.4248 C.ar    1  UNL1        0.0529
     21 C          62.9400   86.2918   12.5314 C.ar    1  UNL1        0.0293
     22 C          62.1423   85.7455   11.3845 C.ar    1  UNL1        0.0505
     23 C          62.1085   84.2675   11.1311 C.ar    1  UNL1        0.0291
     24 C          62.8723   83.3357   12.0245 C.ar    1  UNL1        0.0505
     25 C          63.6700   83.8819   13.1714 C.ar    1  UNL1        0.0293
     26 N          61.3784   86.6773   10.4909 N.pl3   1  UNL1       -0.3027
     27 C          60.9332   88.0138   11.0062 C.3     1  UNL1        0.1231
     28 C          60.1694   88.9456   10.1128 C.3     1  UNL1        0.1636
     29 O          59.8507   88.5409    8.7040 O.3     1  UNL1       -0.3501
     30 C          60.2960   87.2043    8.1887 C.3     1  UNL1        0.1636
     31 C          61.0598   86.2726    9.0821 C.3     1  UNL1        0.1231
     32 N          62.8385   81.8576   11.7711 N.pl3   1  UNL1       -0.3027
     33 C          63.1034   81.3267   10.3935 C.3     1  UNL1        0.1231
     34 C          63.0696   79.8485   10.1401 C.3     1  UNL1        0.1636
     35 O          62.7709   78.9016   11.2643 O.3     1  UNL1       -0.3501
     36 C          62.5060   79.4325   12.6419 C.3     1  UNL1        0.1636
     37 C          62.5398   80.9106   12.8953 C.3     1  UNL1        0.1231
@<TRIPOS>BOND
     1     9    10    1
     2    10     3    1
     3     3     4   ar
     4     4     5   ar
     5     5     6   ar
     6     6     7   ar
     7     7     1    1
     8     1    20    1
     9    20    21   ar
    10    21    22   ar
    11    22    26    1
    12    26    27    1
    13    27    28    1
    14    28    29    1
    15    29    30    1
    16    30    31    1
    17    22    23   ar
    18    23    24   ar
    19    24    32    1
    20    32    33    1
    21    33    34    1
    22    34    35    1
    23    35    36    1
    24    36    37    1
    25    24    25   ar
    26     7     8   ar
    27    10    11    1
    28    11    12    2
    29    12    13    1
    30    13    14    2
    31    14    15    1
    32    15    16    2
    33    16    17    1
    34    17    18    2
    35    18    19    1
    36     8     3   ar
    37    19    11    1
    38    25    20   ar
    39    19    15    1
    40    31    26    1
    41    37    32    1
    42     1     2    1
@<TRIPOS>MOLECULE
*****
 37 42 0 0 0
SMALL
GASTEIGER

@<TRIPOS>ATOM
      1 N          64.5231   85.8989   14.5562 N.pl3   1  UNL1       -0.2824
      2 H          65.2963   85.3940   14.8975 H       1  UNL1        0.1551
      3 C          64.2577   89.8116   15.1644 C.ar    1  UNL1        0.1397
      4 C          63.4198   89.8490   16.4079 C.ar    1  UNL1        0.0554
      5 C          62.9497   88.5697   17.0343 C.ar    1  UNL1        0.1047
      6 N          63.3174   87.2530   16.4170 N.ar    1  UNL1       -0.2119
      7 C          64.1554   87.2156   15.1734 C.ar    1  UNL1        0.2218
      8 N          64.6255   88.4950   14.5471 N.ar    1  UNL1       -0.1983
      9 C          65.4662   92.1030   15.3632 C.3     1  UNL1        0.1184
     10 N          64.7279   91.0910   14.5381 N.pl3   1  UNL1       -0.2734
     11 C          64.4597   91.3583   13.0867 C.2     1  UNL1        0.0411
     12 C          63.3349   90.6523   12.3893 C.2     1  UNL1        0.0112
     13 C          63.0668   90.9196   10.9380 C.2     1  UNL1        0.0023
     14 C          63.9234   91.8930   10.1838 C.2     1  UNL1        0.0173
     15 C          65.0483   92.5990   10.8811 C.2     1  UNL1        0.0912
     16 N          66.0534   93.6038   10.4014 N.2     1  UNL1       -0.1519
     17 N          66.9428   93.9574   11.5564 N.2     1  UNL1       -0.1507
     18 C          66.4873   93.1712   12.7499 C.2     1  UNL1        0.1070
     19 C          65.3164   92.3317   12.3326 C.3     1  UNL1        0.1210
     20 C          63.7128   85.3514   13.4188 C.ar    1  UNL1        0.0529
     21 C          63.6777   83.8733   13.1662 C.ar    1  UNL1        0.0293
     22 C          62.8674   83.3258   12.0289 C.ar    1  UNL1        0.0505
     23 C          62.0922   84.2564   11.1441 C.ar    1  UNL1        0.0291
     24 C          62.1273   85.7346   11.3966 C.ar    1  UNL1        0.0505
     25 C          62.9376   86.2821   12.5340 C.ar    1  UNL1        0.0293
     26 N          62.8322   81.8476   11.7762 N.pl3   1  UNL1       -0.3027
     27 C          62.5346   80.9013   12.9014 C.3     1  UNL1        0.1231
     28 C          62.4995   79.4232   12.6488 C.3     1  UNL1        0.1636
     29 O          62.7619   78.8912   11.2711 O.3     1  UNL1       -0.3501
     30 C          63.0595   79.8376   10.1459 C.3     1  UNL1        0.1636
     31 C          63.0947   81.3156   10.3985 C.3     1  UNL1        0.1231
     32 N          61.3520   86.6653   10.5118 N.pl3   1  UNL1       -0.3027
     33 C          60.9285   88.0095   11.0254 C.3     1  UNL1        0.1231
     34 C          60.1532   88.9401   10.1405 C.3     1  UNL1        0.1636
     35 O          59.8016   88.5266    8.7422 O.3     1  UNL1       -0.3501
     36 C          60.2252   87.1824    8.2287 C.3     1  UNL1        0.1636
     37 C          61.0004   86.2518    9.1135 C.3     1  UNL1        0.1231
@<TRIPOS>BOND
     1     9    10    1
     2    10     3    1
     3     3     4   ar
     4     4     5   ar
     5     5     6   ar
     6     6     7   ar
     7     7     1    1
     8     1    20    1
     9    20    21   ar
    10    21    22   ar
    11    22    26    1
    12    26    27    1
    13    27    28    1
    14    28    29    1
    15    29    30    1
    16    30    31    1
    17    22    23   ar
    18    23    24   ar
    19    24    32    1
    20    32    33    1
    21    33    34    1
    22    34    35    1
    23    35    36    1
    24    36    37    1
    25    24    25   ar
    26     7     8   ar
    27    10    11    1
    28    11    12    2
    29    12    13    1
    30    13    14    2
    31    14    15    1
    32    15    16    2
    33    16    17    1
    34    17    18    2
    35    18    19    1
    36     8     3   ar
    37    19    11    1
    38    25    20   ar
    39    19    15    1
    40    31    26    1
    41    37    32    1
    42     1     2    1
@<TRIPOS>MOLECULE
*****
 37 42 0 0 0
SMALL
GASTEIGER

@<TRIPOS>ATOM
      1 N          61.9645   90.1587    9.7332 N.pl3   1  UNL1       -0.2824
      2 H          61.4884   90.7068    9.0683 H       1  UNL1        0.1551
      3 C          62.1454   86.3792   10.9300 C.ar    1  UNL1        0.1397
      4 C          61.1257   85.7476   10.0294 C.ar    1  UNL1        0.0554
      5 C          60.3855   86.5863    9.0300 C.ar    1  UNL1        0.1047
      6 N          60.6651   88.0567    8.9313 N.ar    1  UNL1       -0.2119
      7 C          61.6849   88.6883    9.8319 C.ar    1  UNL1        0.2218
      8 N          62.4251   87.8495   10.8313 N.ar    1  UNL1       -0.1983
      9 C          63.4043   86.1616   13.1923 C.3     1  UNL1        0.1184
     10 N          62.8856   85.5404   11.9294 N.pl3   1  UNL1       -0.2734
     11 C          63.1069   84.0804   11.6658 C.2     1  UNL1        0.0411
     12 C          63.6972   83.6349   10.3607 C.2     1  UNL1        0.0112
     13 C          63.9185   82.1751   10.0971 C.2     1  UNL1        0.0023
     14 C          63.5497   81.1604   11.1386 C.2     1  UNL1        0.0173
     15 C          62.9595   81.6059   12.4436 C.2     1  UNL1        0.0912
     16 N          62.5013   80.8422   13.6506 N.2     1  UNL1       -0.1519
     17 N          61.9967   81.8302   14.6602 N.2     1  UNL1       -0.1507
     18 C          62.1430   83.2045   14.0771 C.2     1  UNL1        0.1070
     19 C          62.7381   83.0658   12.7072 C.3     1  UNL1        0.1210
     20 C          62.9696   90.7941   10.6476 C.ar    1  UNL1        0.0529
     21 C          64.0478   91.6710   10.0835 C.ar    1  UNL1        0.0293
     22 C          65.0529   92.3063   10.9979 C.ar    1  UNL1        0.0505
     23 C          64.9797   92.0647   12.4764 C.ar    1  UNL1        0.0291
     24 C          63.9015   91.1877   13.0407 C.ar    1  UNL1        0.0505
     25 C          62.8964   90.5524   12.1263 C.ar    1  UNL1        0.0293
     26 N          66.1312   93.1833   10.4337 N.pl3   1  UNL1       -0.3027
     27 C          67.3790   92.5698    9.8711 C.3     1  UNL1        0.1231
     28 C          68.4574   93.4467    9.3069 C.3     1  UNL1        0.1636
     29 O          68.2879   94.9370    9.3054 O.3     1  UNL1       -0.3501
     30 C          67.0400   95.5505    9.8681 C.3     1  UNL1        0.1636
     31 C          65.9618   94.6737   10.4322 C.3     1  UNL1        0.1231
     32 N          63.8283   90.9461   14.5192 N.pl3   1  UNL1       -0.3027
     33 C          64.3827   91.9620   15.4735 C.3     1  UNL1        0.1231
     34 C          64.3095   91.7203   16.9522 C.3     1  UNL1        0.1636
     35 O          63.6820   90.4629   17.4764 O.3     1  UNL1       -0.3501
     36 C          63.1276   89.4470   16.5222 C.3     1  UNL1        0.1636
     37 C          63.2008   89.6886   15.0436 C.3     1  UNL1        0.1231
@<TRIPOS>BOND
     1     9    10    1
     2    10     3    1
     3     3     4   ar
     4     4     5   ar
     5     5     6   ar
     6     6     7   ar
     7     7     1    1
     8     1    20    1
     9    20    21   ar
    10    21    22   ar
    11    22    26    1
    12    26    27    1
    13    27    28    1
    14    28    29    1
    15    29    30    1
    16    30    31    1
    17    22    23   ar
    18    23    24   ar
    19    24    32    1
    20    32    33    1
    21    33    34    1
    22    34    35    1
    23    35    36    1
    24    36    37    1
    25    24    25   ar
    26     7     8   ar
    27    10    11    1
    28    11    12    2
    29    12    13    1
    30    13    14    2
    31    14    15    1
    32    15    16    2
    33    16    17    1
    34    17    18    2
    35    18    19    1
    36     8     3   ar
    37    19    11    1
    38    25    20   ar
    39    19    15    1
    40    31    26    1
    41    37    32    1
    42     1     2    1
@<TRIPOS>MOLECULE
*****
 37 42 0 0 0
SMALL
GASTEIGER

@<TRIPOS>ATOM
      1 N          61.9478   90.1452    9.7458 N.pl3   1  UNL1       -0.2824
      2 H          61.4603   90.6976    9.0928 H       1  UNL1        0.1551
      3 C          62.1481   86.3582   10.9157 C.ar    1  UNL1        0.1397
      4 C          61.1494   85.7236    9.9940 C.ar    1  UNL1        0.0554
      5 C          60.4168   86.5628    8.9895 C.ar    1  UNL1        0.1047
      6 N          60.6829   88.0366    8.9068 N.ar    1  UNL1       -0.2119
      7 C          61.6817   88.6713    9.8285 C.ar    1  UNL1        0.2218
      8 N          62.4143   87.8321   10.8331 N.ar    1  UNL1       -0.1983
      9 C          63.3894   86.1394   13.1876 C.3     1  UNL1        0.1184
     10 N          62.8808   85.5190   11.9202 N.pl3   1  UNL1       -0.2734
     11 C          63.1047   84.0593   11.6573 C.2     1  UNL1        0.0411
     12 C          63.7081   83.6152   10.3578 C.2     1  UNL1        0.0112
     13 C          63.9321   82.1556   10.0949 C.2     1  UNL1        0.0023
     14 C          63.5527   81.1399   11.1315 C.2     1  UNL1        0.0173
     15 C          62.9494   81.5839   12.4310 C.2     1  UNL1        0.0912
     16 N          62.4790   80.8190   13.6325 N.2     1  UNL1       -0.1519
     17 N          61.9643   81.8059   14.6380 N.2     1  UNL1       -0.1507
     18 C          62.1165   83.1808   14.0579 C.2     1  UNL1        0.1070
     19 C          62.7254   83.0436   12.6939 C.3     1  UNL1        0.1210
     20 C          62.9568   90.7775   10.6581 C.ar    1  UNL1        0.0529
     21 C          62.8843   90.5385   12.1370 C.ar    1  UNL1        0.0293
     22 C          63.8932   91.1708   13.0493 C.ar    1  UNL1        0.0505
     23 C          64.9747   92.0421   12.4825 C.ar    1  UNL1        0.0291
     24 C          65.0472   92.2810   11.0034 C.ar    1  UNL1        0.0505
     25 C          64.0383   91.6488   10.0911 C.ar    1  UNL1        0.0293
     26 N          63.8208   90.9319   14.5284 N.pl3   1  UNL1       -0.3027
     27 C          64.3731   91.9508   15.4806 C.3     1  UNL1        0.1231
     28 C          64.3007   91.7120   16.9597 C.3     1  UNL1        0.1636
     29 O          63.6760   90.4542   17.4866 O.3     1  UNL1       -0.3501
     30 C          63.1237   89.4352   16.5343 C.3     1  UNL1        0.1636
     31 C          63.1961   89.6741   15.0553 C.3     1  UNL1        0.1231
     32 N          66.1287   93.1523   10.4366 N.pl3   1  UNL1       -0.3027
     33 C          67.3759   92.5328    9.8793 C.3     1  UNL1        0.1231
     34 C          68.4574   93.4041    9.3125 C.3     1  UNL1        0.1636
     35 O          68.2916   94.8948    9.3029 O.3     1  UNL1       -0.3501
     36 C          67.0444   95.5143    9.8602 C.3     1  UNL1        0.1636
     37 C          65.9629   94.6431   10.4270 C.3     1  UNL1        0.1231
@<TRIPOS>BOND
     1     9    10    1
     2    10     3    1
     3     3     4   ar
     4     4     5   ar
     5     5     6   ar
     6     6     7   ar
     7     7     1    1
     8     1    20    1
     9    20    21   ar
    10    21    22   ar
    11    22    26    1
    12    26    27    1
    13    27    28    1
    14    28    29    1
    15    29    30    1
    16    30    31    1
    17    22    23   ar
    18    23    24   ar
    19    24    32    1
    20    32    33    1
    21    33    34    1
    22    34    35    1
    23    35    36    1
    24    36    37    1
    25    24    25   ar
    26     7     8   ar
    27    10    11    1
    28    11    12    2
    29    12    13    1
    30    13    14    2
    31    14    15    1
    32    15    16    2
    33    16    17    1
    34    17    18    2
    35    18    19    1
    36     8     3   ar
    37    19    11    1
    38    25    20   ar
    39    19    15    1
    40    31    26    1
    41    37    32    1
    42     1     2    1
@<TRIPOS>MOLECULE
*****
 37 42 0 0 0
SMALL
GASTEIGER

@<TRIPOS>ATOM
      1 N          62.4970   89.7800   11.5975 N.pl3   1  UNL1       -0.2824
      2 H          61.9342   90.3625   11.0379 H       1  UNL1        0.1551
      3 C          65.2322   91.9744   13.4558 C.ar    1  UNL1        0.1397
      4 C          65.0101   91.5581   14.8796 C.ar    1  UNL1        0.0554
      5 C          63.9503   90.5492   15.2095 C.ar    1  UNL1        0.1047
      6 N          63.1126   89.9564   14.1154 N.ar    1  UNL1       -0.2119
      7 C          63.3347   90.3727   12.6915 C.ar    1  UNL1        0.2218
      8 N          64.3946   91.3817   12.3617 N.ar    1  UNL1       -0.1983
      9 C          66.7640   93.9457   14.1754 C.3     1  UNL1        0.1184
     10 N          66.2921   92.9834   13.1260 N.pl3   1  UNL1       -0.2734
     11 C          66.8800   93.0300   11.7468 C.2     1  UNL1        0.0411
     12 C          67.7745   91.9222   11.2750 C.2     1  UNL1        0.0112
     13 C          68.3624   91.9688    9.8958 C.2     1  UNL1        0.0023
     14 C          68.0557   93.1232    8.9884 C.2     1  UNL1        0.0173
     15 C          67.1612   94.2310    9.4602 C.2     1  UNL1        0.0912
     16 N          66.6833   95.4875    8.7948 N.2     1  UNL1       -0.1519
     17 N          65.8000   96.2175    9.7627 N.2     1  UNL1       -0.1507
     18 C          65.7320   95.4121   11.0264 C.2     1  UNL1        0.1070
     19 C          66.5733   94.1844   10.8394 C.3     1  UNL1        0.1210
     20 C          62.5168   88.2997   11.3561 C.ar    1  UNL1        0.0529
     21 C          62.9271   87.3658   12.4558 C.ar    1  UNL1        0.0293
     22 C          62.9469   85.8855   12.2144 C.ar    1  UNL1        0.0505
     23 C          62.5563   85.3391   10.8732 C.ar    1  UNL1        0.0291
     24 C          62.1460   86.2730    9.7734 C.ar    1  UNL1        0.0505
     25 C          62.1262   87.7533   10.0148 C.ar    1  UNL1        0.0293
     26 N          63.3572   84.9516   13.3141 N.pl3   1  UNL1       -0.3027
     27 C          63.0849   83.4817   13.1904 C.3     1  UNL1        0.1231
     28 C          63.4952   82.5477   14.2901 C.3     1  UNL1        0.1636
     29 O          64.1778   83.0836   15.5135 O.3     1  UNL1       -0.3501
     30 C          64.4501   84.5535   15.6372 C.3     1  UNL1        0.1636
     31 C          64.0398   85.4874   14.5376 C.3     1  UNL1        0.1231
     32 N          61.7554   85.7265    8.4322 N.pl3   1  UNL1       -0.3027
     33 C          60.3564   85.9138    7.9245 C.3     1  UNL1        0.1231
     34 C          59.9659   85.3673    6.5832 C.3     1  UNL1        0.1636
     35 O          60.9743   84.6336    5.7498 O.3     1  UNL1       -0.3501
     36 C          62.3732   84.4464    6.2574 C.3     1  UNL1        0.1636
     37 C          62.7638   84.9928    7.5986 C.3     1  UNL1        0.1231
@<TRIPOS>BOND
     1     9    10    1
     2    10     3    1
     3     3     4   ar
     4     4     5   ar
     5     5     6   ar
     6     6     7   ar
     7     7     1    1
     8     1    20    1
     9    20    21   ar
    10    21    22   ar
    11    22    26    1
    12    26    27    1
    13    27    28    1
    14    28    29    1
    15    29    30    1
    16    30    31    1
    17    22    23   ar
    18    23    24   ar
    19    24    32    1
    20    32    33    1
    21    33    34    1
    22    34    35    1
    23    35    36    1
    24    36    37    1
    25    24    25   ar
    26     7     8   ar
    27    10    11    1
    28    11    12    2
    29    12    13    1
    30    13    14    2
    31    14    15    1
    32    15    16    2
    33    16    17    1
    34    17    18    2
    35    18    19    1
    36     8     3   ar
    37    19    11    1
    38    25    20   ar
    39    19    15    1
    40    31    26    1
    41    37    32    1
    42     1     2    1
@<TRIPOS>MOLECULE
*****
 37 42 0 0 0
SMALL
GASTEIGER

@<TRIPOS>ATOM
      1 N          62.5371   89.7974   11.6349 N.pl3   1  UNL1       -0.2824
      2 H          61.9769   90.3847   11.0778 H       1  UNL1        0.1551
      3 C          65.2874   91.9763   13.4892 C.ar    1  UNL1        0.1397
      4 C          65.0727   91.5527   14.9120 C.ar    1  UNL1        0.0554
      5 C          64.0128   90.5441   15.2425 C.ar    1  UNL1        0.1047
      6 N          63.1676   89.9590   14.1502 N.ar    1  UNL1       -0.2119
      7 C          63.3823   90.3825   12.7273 C.ar    1  UNL1        0.2218
      8 N          64.4422   91.3912   12.3968 N.ar    1  UNL1       -0.1983
      9 C          66.8354   93.9331   14.2136 C.3     1  UNL1        0.1184
     10 N          66.3473   92.9850   13.1587 N.pl3   1  UNL1       -0.2734
     11 C          66.9191   93.0455   11.7733 C.2     1  UNL1        0.0411
     12 C          67.7931   91.9336   11.2734 C.2     1  UNL1        0.0112
     13 C          68.3648   91.9941    9.8881 C.2     1  UNL1        0.0023
     14 C          68.0627   93.1666    9.0024 C.2     1  UNL1        0.0173
     15 C          67.1888   94.2784    9.5024 C.2     1  UNL1        0.0912
     16 N          66.7198   95.5514    8.8625 N.2     1  UNL1       -0.1519
     17 N          65.8580   96.2777    9.8524 N.2     1  UNL1       -0.1507
     18 C          65.7945   95.4535   11.1041 C.2     1  UNL1        0.1070
     19 C          66.6170   94.2179   10.8878 C.3     1  UNL1        0.1210
     20 C          62.5455   88.3173   11.3914 C.ar    1  UNL1        0.0529
     21 C          62.1428   87.7753   10.0521 C.ar    1  UNL1        0.0293
     22 C          62.1512   86.2952    9.8085 C.ar    1  UNL1        0.0505
     23 C          62.5623   85.3572   10.9045 C.ar    1  UNL1        0.0291
     24 C          62.9649   85.8992   12.2439 C.ar    1  UNL1        0.0505
     25 C          62.9565   87.3792   12.4874 C.ar    1  UNL1        0.0293
     26 N          61.7486   85.7532    8.4691 N.pl3   1  UNL1       -0.3027
     27 C          60.3482   85.9520    7.9698 C.3     1  UNL1        0.1231
     28 C          59.9454   85.4099    6.6304 C.3     1  UNL1        0.1636
     29 O          60.9431   84.6690    5.7903 O.3     1  UNL1       -0.3501
     30 C          62.3435   84.4702    6.2897 C.3     1  UNL1        0.1636
     31 C          62.7462   85.0123    7.6290 C.3     1  UNL1        0.1231
     32 N          63.3760   84.9611   13.3398 N.pl3   1  UNL1       -0.3027
     33 C          63.1146   83.4902   13.2053 C.3     1  UNL1        0.1231
     34 C          63.5257   82.5522   14.3013 C.3     1  UNL1        0.1636
     35 O          64.1981   83.0850   15.5317 O.3     1  UNL1       -0.3501
     36 C          64.4594   84.5559   15.6662 C.3     1  UNL1        0.1636
     37 C          64.0484   85.4940   14.5702 C.3     1  UNL1        0.1231
@<TRIPOS>BOND
     1     9    10    1
     2    10     3    1
     3     3     4   ar
     4     4     5   ar
     5     5     6   ar
     6     6     7   ar
     7     7     1    1
     8     1    20    1
     9    20    21   ar
    10    21    22   ar
    11    22    26    1
    12    26    27    1
    13    27    28    1
    14    28    29    1
    15    29    30    1
    16    30    31    1
    17    22    23   ar
    18    23    24   ar
    19    24    32    1
    20    32    33    1
    21    33    34    1
    22    34    35    1
    23    35    36    1
    24    36    37    1
    25    24    25   ar
    26     7     8   ar
    27    10    11    1
    28    11    12    2
    29    12    13    1
    30    13    14    2
    31    14    15    1
    32    15    16    2
    33    16    17    1
    34    17    18    2
    35    18    19    1
    36     8     3   ar
    37    19    11    1
    38    25    20   ar
    39    19    15    1
    40    31    26    1
    41    37    32    1
    42     1     2    1
@<TRIPOS>MOLECULE
*****
 37 42 0 0 0
SMALL
GASTEIGER

@<TRIPOS>ATOM
      1 N          61.1303   90.5309    9.6319 N.pl3   1  UNL1       -0.2824
      2 H          60.5773   91.2951    9.3501 H       1  UNL1        0.1551
      3 C          61.4282   86.6358    8.9323 C.ar    1  UNL1        0.1397
      4 C          60.1759   86.3929    8.1433 C.ar    1  UNL1        0.0554
      5 C          59.2417   87.5293    7.8504 C.ar    1  UNL1        0.1047
      6 N          59.5599   88.9086    8.3466 N.ar    1  UNL1       -0.2119
      7 C          60.8122   89.1515    9.1357 C.ar    1  UNL1        0.2218
      8 N          61.7465   88.0150    9.4286 N.ar    1  UNL1       -0.1983
      9 C          63.0955   84.8231    8.1047 C.3     1  UNL1        0.1184
     10 N          62.3625   85.4993    9.2252 N.pl3   1  UNL1       -0.2734
     11 C          62.5636   85.0390   10.6386 C.2     1  UNL1        0.0411
     12 C          61.9383   85.7985   11.7709 C.2     1  UNL1        0.0112
     13 C          62.1394   85.3382   13.1842 C.2     1  UNL1        0.0023
     14 C          62.9659   84.1183   13.4654 C.2     1  UNL1        0.0173
     15 C          63.5912   83.3588   12.3331 C.2     1  UNL1        0.0912
     16 N          64.4504   82.1297   12.3025 N.2     1  UNL1       -0.1519
     17 N          64.7803   81.8304   10.8702 N.2     1  UNL1       -0.1507
     18 C          64.1250   82.8745   10.0156 C.2     1  UNL1        0.1070
     19 C          63.3900   83.8191   10.9197 C.3     1  UNL1        0.1210
     20 C          62.2910   90.7458   10.5573 C.ar    1  UNL1        0.0529
     21 C          63.4008   91.6755   10.1652 C.ar    1  UNL1        0.0293
     22 C          64.5615   91.8905   11.0907 C.ar    1  UNL1        0.0505
     23 C          64.6124   91.1756   12.4084 C.ar    1  UNL1        0.0291
     24 C          63.5026   90.2459   12.8006 C.ar    1  UNL1        0.0505
     25 C          62.3419   90.0309   11.8751 C.ar    1  UNL1        0.0293
     26 N          65.6714   92.8202   10.6985 N.pl3   1  UNL1       -0.3027
     27 C          66.9239   92.2740   10.0797 C.3     1  UNL1        0.1231
     28 C          68.0338   93.2037    9.6875 C.3     1  UNL1        0.1636
     29 O          67.8912   94.6796    9.9141 O.3     1  UNL1       -0.3501
     30 C          66.6386   95.2258   10.5329 C.3     1  UNL1        0.1636
     31 C          65.5288   94.2961   10.9251 C.3     1  UNL1        0.1231
     32 N          63.5534   89.5311   14.1183 N.pl3   1  UNL1       -0.3027
     33 C          64.0479   88.1165   14.1856 C.3     1  UNL1        0.1231
     34 C          64.0988   87.4017   15.5034 C.3     1  UNL1        0.1636
     35 O          63.6552   88.1014   16.7538 O.3     1  UNL1       -0.3501
     36 C          63.1607   89.5159   16.6865 C.3     1  UNL1        0.1636
     37 C          63.1098   90.2308   15.3688 C.3     1  UNL1        0.1231
@<TRIPOS>BOND
     1     9    10    1
     2    10     3    1
     3     3     4   ar
     4     4     5   ar
     5     5     6   ar
     6     6     7   ar
     7     7     1    1
     8     1    20    1
     9    20    21   ar
    10    21    22   ar
    11    22    26    1
    12    26    27    1
    13    27    28    1
    14    28    29    1
    15    29    30    1
    16    30    31    1
    17    22    23   ar
    18    23    24   ar
    19    24    32    1
    20    32    33    1
    21    33    34    1
    22    34    35    1
    23    35    36    1
    24    36    37    1
    25    24    25   ar
    26     7     8   ar
    27    10    11    1
    28    11    12    2
    29    12    13    1
    30    13    14    2
    31    14    15    1
    32    15    16    2
    33    16    17    1
    34    17    18    2
    35    18    19    1
    36     8     3   ar
    37    19    11    1
    38    25    20   ar
    39    19    15    1
    40    31    26    1
    41    37    32    1
    42     1     2    1
