@<TRIPOS>MOLECULE
*****
 33 37 0 0 0
SMALL
GASTEIGER

@<TRIPOS>ATOM
      1 C          62.9590   86.5615   12.3605 C.2     1  UNL1        0.2506
      2 O          63.5396   87.4287   13.4378 O.2     1  UNL1       -0.2699
      3 N          62.0495   87.1570   11.3270 N.am    1  UNL1       -0.2723
      4 C          61.4689   86.2898   10.2497 C.3     1  UNL1        0.1257
      5 C          60.5593   86.8854    9.2162 C.3     1  UNL1        0.1637
      6 O          60.2304   88.3482    9.2601 O.3     1  UNL1       -0.3502
      7 C          60.8111   89.2155   10.3374 C.3     1  UNL1        0.1622
      8 C          61.7206   88.6199   11.3709 C.3     1  UNL1        0.1096
      9 C          64.1571   82.2981    9.6423 C.3     1  UNL1        0.0310
     10 C          63.8870   82.9670   10.9575 C.ar    1  UNL1       -0.0219
     11 C          63.9457   82.1730   12.2287 C.ar    1  UNL1       -0.0070
     12 C          63.6756   82.8418   13.5439 C.ar    1  UNL1       -0.0026
     13 C          63.7344   82.0478   14.8152 C.3     1  UNL1        0.0327
     14 C          63.3467   84.3046   13.5878 C.ar    1  UNL1        0.1032
     15 C          63.2879   85.0986   12.3166 C.ar    1  UNL1        0.0723
     16 C          63.5581   84.4298   11.0014 C.ar    1  UNL1        0.0018
     17 N          63.0765   84.9735   14.9030 N.ar    1  UNL1       -0.1480
     18 N          61.7662   84.9862   15.6330 N.ar    1  UNL1       -0.1447
     19 C          61.9491   85.7676   16.9003 C.ar    1  UNL1        0.1446
     20 C          63.3725   86.2378   16.9535 C.ar    1  UNL1        0.1446
     21 N          64.0693   85.7470   15.7191 N.ar    1  UNL1       -0.1447
     22 C          62.3012   89.4872   12.4483 C.3     1  UNL1        0.0488
     23 C          63.3563   90.4982   12.1100 C.ar    1  UNL1       -0.0189
     24 C          63.4179   91.0851   10.7310 C.ar    1  UNL1       -0.0041
     25 C          64.4730   92.0963   10.3926 C.ar    1  UNL1        0.0013
     26 C          65.4665   92.5204   11.4333 C.ar    1  UNL1        0.0209
     27 C          65.4049   91.9335   12.8124 C.ar    1  UNL1        0.1026
     28 C          64.3498   90.9224   13.1507 C.ar    1  UNL1        0.0167
     29 N          66.3984   92.3576   13.8531 N.ar    1  UNL1       -0.1478
     30 N          67.8899   92.3702   13.6949 N.ar    1  UNL1       -0.1447
     31 C          68.4881   92.8640   14.9787 C.ar    1  UNL1        0.1446
     32 C          67.3663   93.1567   15.9304 C.ar    1  UNL1        0.1446
     33 N          66.0746   92.8437   15.2348 N.ar    1  UNL1       -0.1447
@<TRIPOS>BOND
     1     9    10    1
     2    10    11   ar
     3    11    12   ar
     4    12    13    1
     5    12    14   ar
     6    14    17    1
     7    17    18   ar
     8    18    19   ar
     9    19    20   ar
    10    20    21   ar
    11    14    15   ar
    12    15     1    1
    13     1     2    2
    14     1     3   am
    15     3     4    1
    16     4     5    1
    17     5     6    1
    18     6     7    1
    19     7     8    1
    20     8    22    1
    21    22    23    1
    22    23    24   ar
    23    24    25   ar
    24    25    26   ar
    25    26    27   ar
    26    27    29    1
    27    29    30   ar
    28    30    31   ar
    29    31    32   ar
    30    32    33   ar
    31    27    28   ar
    32    15    16   ar
    33    16    10   ar
    34    21    17   ar
    35     8     3    1
    36    28    23   ar
    37    33    29   ar
@<TRIPOS>MOLECULE
*****
 33 37 0 0 0
SMALL
GASTEIGER

@<TRIPOS>ATOM
      1 C          62.7283   87.3200   11.7650 C.2     1  UNL1        0.2506
      2 O          63.3952   87.4810   13.0989 O.2     1  UNL1       -0.2699
      3 N          61.9016   88.4370   11.2002 N.am    1  UNL1       -0.2723
      4 C          61.2347   88.2760    9.8663 C.3     1  UNL1        0.1257
      5 C          60.4080   89.3931    9.3014 C.3     1  UNL1        0.1637
      6 O          60.2483   90.6709   10.0705 O.3     1  UNL1       -0.3502
      7 C          60.9153   90.8319   11.4044 C.3     1  UNL1        0.1622
      8 C          61.7419   89.7150   11.9692 C.3     1  UNL1        0.1096
      9 C          62.8543   84.7810    7.2332 C.3     1  UNL1        0.0310
     10 C          62.9510   84.7726    8.7300 C.ar    1  UNL1       -0.0219
     11 C          63.2073   83.4863    9.4578 C.ar    1  UNL1       -0.0070
     12 C          63.3040   83.4779   10.9547 C.ar    1  UNL1       -0.0026
     13 C          63.5604   82.1916   11.6825 C.3     1  UNL1        0.0327
     14 C          63.1443   84.7558   11.7238 C.ar    1  UNL1        0.1032
     15 C          62.8880   86.0421   10.9959 C.ar    1  UNL1        0.0723
     16 C          62.7913   86.0505    9.4991 C.ar    1  UNL1        0.0018
     17 N          63.2410   84.7474   13.2206 N.ar    1  UNL1       -0.1480
     18 N          62.0909   84.6428   14.1779 N.ar    1  UNL1       -0.1447
     19 C          62.6439   84.6729   15.5719 C.ar    1  UNL1        0.1446
     20 C          64.1357   84.7961   15.4762 C.ar    1  UNL1        0.1446
     21 N          64.5048   84.8422   14.0231 N.ar    1  UNL1       -0.1447
     22 C          62.4089   89.8759   13.3031 C.3     1  UNL1        0.0488
     23 C          63.7342   90.5717   13.3999 C.ar    1  UNL1       -0.0189
     24 C          64.5668   90.4302   14.6395 C.ar    1  UNL1       -0.0041
     25 C          65.8922   91.1260   14.7363 C.ar    1  UNL1        0.0013
     26 C          66.3849   91.9634   13.5935 C.ar    1  UNL1        0.0209
     27 C          65.5522   92.1049   12.3538 C.ar    1  UNL1        0.1026
     28 C          64.2269   91.4091   12.2570 C.ar    1  UNL1        0.0167
     29 N          66.0449   92.9422   11.2110 N.ar    1  UNL1       -0.1478
     30 N          65.5094   94.2835   10.8056 N.ar    1  UNL1       -0.1447
     31 C          66.2931   94.7556    9.6169 C.ar    1  UNL1        0.1446
     32 C          67.3130   93.7060    9.2876 C.ar    1  UNL1        0.1446
     33 N          67.1596   92.5853   10.2728 N.ar    1  UNL1       -0.1447
@<TRIPOS>BOND
     1     9    10    1
     2    10    11   ar
     3    11    12   ar
     4    12    13    1
     5    12    14   ar
     6    14    17    1
     7    17    18   ar
     8    18    19   ar
     9    19    20   ar
    10    20    21   ar
    11    14    15   ar
    12    15     1    1
    13     1     2    2
    14     1     3   am
    15     3     4    1
    16     4     5    1
    17     5     6    1
    18     6     7    1
    19     7     8    1
    20     8    22    1
    21    22    23    1
    22    23    24   ar
    23    24    25   ar
    24    25    26   ar
    25    26    27   ar
    26    27    29    1
    27    29    30   ar
    28    30    31   ar
    29    31    32   ar
    30    32    33   ar
    31    27    28   ar
    32    15    16   ar
    33    16    10   ar
    34    21    17   ar
    35     8     3    1
    36    28    23   ar
    37    33    29   ar
@<TRIPOS>MOLECULE
*****
 33 37 0 0 0
SMALL
GASTEIGER

@<TRIPOS>ATOM
      1 C          62.7342   88.4986   11.5802 C.2     1  UNL1        0.2506
      2 O          62.7044   89.9981   11.5553 O.2     1  UNL1       -0.2699
      3 N          63.3624   87.7800   12.7374 N.am    1  UNL1       -0.2723
      4 C          63.3922   86.2805   12.7623 C.3     1  UNL1        0.1257
      5 C          64.0204   85.5620   13.9196 C.3     1  UNL1        0.1637
      6 O          64.6188   86.3430   15.0518 O.3     1  UNL1       -0.3502
      7 C          64.5890   87.8425   15.0268 C.3     1  UNL1        0.1622
      8 C          63.9608   88.5610   13.8697 C.3     1  UNL1        0.1096
      9 C          63.1945   84.9097    7.8509 C.3     1  UNL1        0.0310
     10 C          62.3660   85.9232    8.5833 C.ar    1  UNL1       -0.0219
     11 C          60.9391   86.1557    8.1834 C.ar    1  UNL1       -0.0070
     12 C          60.1106   87.1692    8.9158 C.ar    1  UNL1       -0.0026
     13 C          58.6836   87.4017    8.5159 C.3     1  UNL1        0.0327
     14 C          60.7089   87.9501   10.0481 C.ar    1  UNL1        0.1032
     15 C          62.1358   87.7176   10.4479 C.ar    1  UNL1        0.0723
     16 C          62.9643   86.7041    9.7155 C.ar    1  UNL1        0.0018
     17 N          59.8804   88.9636   10.7804 N.ar    1  UNL1       -0.1480
     18 N          59.6805   90.3951   10.3792 N.ar    1  UNL1       -0.1447
     19 C          58.7829   91.0398   11.3935 C.ar    1  UNL1        0.1446
     20 C          58.4280   90.0068   12.4215 C.ar    1  UNL1        0.1446
     21 N          59.1064   88.7237   12.0427 N.ar    1  UNL1       -0.1447
     22 C          63.9310   90.0605   13.8448 C.3     1  UNL1        0.0488
     23 C          65.2140   90.8352   13.7826 C.ar    1  UNL1       -0.0189
     24 C          66.1547   90.8231   14.9508 C.ar    1  UNL1       -0.0041
     25 C          67.4377   91.5979   14.8886 C.ar    1  UNL1        0.0013
     26 C          67.7799   92.3847   13.6582 C.ar    1  UNL1        0.0209
     27 C          66.8390   92.3967   12.4899 C.ar    1  UNL1        0.1026
     28 C          65.5561   91.6220   12.5521 C.ar    1  UNL1        0.0167
     29 N          67.1812   93.1835   11.2595 N.ar    1  UNL1       -0.1478
     30 N          66.8325   94.6203   11.0064 N.ar    1  UNL1       -0.1447
     31 C          67.3679   94.9964    9.6567 C.ar    1  UNL1        0.1446
     32 C          68.0474   93.7921    9.0755 C.ar    1  UNL1        0.1446
     33 N          67.9321   92.6716   10.0661 N.ar    1  UNL1       -0.1447
@<TRIPOS>BOND
     1     9    10    1
     2    10    11   ar
     3    11    12   ar
     4    12    13    1
     5    12    14   ar
     6    14    17    1
     7    17    18   ar
     8    18    19   ar
     9    19    20   ar
    10    20    21   ar
    11    14    15   ar
    12    15     1    1
    13     1     2    2
    14     1     3   am
    15     3     4    1
    16     4     5    1
    17     5     6    1
    18     6     7    1
    19     7     8    1
    20     8    22    1
    21    22    23    1
    22    23    24   ar
    23    24    25   ar
    24    25    26   ar
    25    26    27   ar
    26    27    29    1
    27    29    30   ar
    28    30    31   ar
    29    31    32   ar
    30    32    33   ar
    31    27    28   ar
    32    15    16   ar
    33    16    10   ar
    34    21    17   ar
    35     8     3    1
    36    28    23   ar
    37    33    29   ar
@<TRIPOS>MOLECULE
*****
 33 37 0 0 0
SMALL
GASTEIGER

@<TRIPOS>ATOM
      1 C          63.2627   87.1645   12.9225 C.2     1  UNL1        0.2506
      2 O          63.8389   87.6845   14.2061 O.2     1  UNL1       -0.2699
      3 N          62.6901   88.1184   11.9166 N.am    1  UNL1       -0.2723
      4 C          62.1138   87.5984   10.6331 C.3     1  UNL1        0.1257
      5 C          61.5412   88.5525    9.6271 C.3     1  UNL1        0.1637
      6 O          61.5448   90.0265    9.9047 O.3     1  UNL1       -0.3502
      7 C          62.1210   90.5466   11.1882 C.3     1  UNL1        0.1622
      8 C          62.6936   89.5926   12.1942 C.3     1  UNL1        0.1096
      9 C          63.5853   83.2183    9.5575 C.3     1  UNL1        0.0310
     10 C          63.4204   83.7173   10.9624 C.ar    1  UNL1       -0.0219
     11 C          63.2520   82.7422   12.0897 C.ar    1  UNL1       -0.0070
     12 C          63.0871   83.2412   13.4947 C.ar    1  UNL1       -0.0026
     13 C          62.9187   82.2661   14.6220 C.3     1  UNL1        0.0327
     14 C          63.0907   84.7153   13.7723 C.ar    1  UNL1        0.1032
     15 C          63.2591   85.6903   12.6450 C.ar    1  UNL1        0.0723
     16 C          63.4240   85.1913   11.2400 C.ar    1  UNL1        0.0018
     17 N          62.9258   85.2143   15.1772 N.ar    1  UNL1       -0.1480
     18 N          61.6239   85.4143   15.8947 N.ar    1  UNL1       -0.1447
     19 C          61.9273   85.9246   17.2723 C.ar    1  UNL1        0.1446
     20 C          63.4169   86.0398   17.4061 C.ar    1  UNL1        0.1446
     21 N          64.0340   85.6009   16.1113 N.ar    1  UNL1       -0.1447
     22 C          63.2699   90.1127   13.4777 C.3     1  UNL1        0.0488
     23 C          64.5631   90.8725   13.4658 C.ar    1  UNL1       -0.0189
     24 C          65.5361   90.7147   14.5963 C.ar    1  UNL1       -0.0041
     25 C          66.8294   91.4746   14.5844 C.ar    1  UNL1        0.0013
     26 C          67.1496   92.3923   13.4419 C.ar    1  UNL1        0.0209
     27 C          66.1764   92.5500   12.3112 C.ar    1  UNL1        0.1026
     28 C          64.8832   91.7902   12.3232 C.ar    1  UNL1        0.0167
     29 N          66.4966   93.4677   11.1687 N.ar    1  UNL1       -0.1478
     30 N          67.6243   93.3015   10.1937 N.ar    1  UNL1       -0.1447
     31 C          67.5699   94.4437    9.2229 C.ar    1  UNL1        0.1446
     32 C          66.4086   95.3159    9.5980 C.ar    1  UNL1        0.1446
     33 N          65.7452   94.7127   10.8006 N.ar    1  UNL1       -0.1447
@<TRIPOS>BOND
     1     9    10    1
     2    10    11   ar
     3    11    12   ar
     4    12    13    1
     5    12    14   ar
     6    14    17    1
     7    17    18   ar
     8    18    19   ar
     9    19    20   ar
    10    20    21   ar
    11    14    15   ar
    12    15     1    1
    13     1     2    2
    14     1     3   am
    15     3     4    1
    16     4     5    1
    17     5     6    1
    18     6     7    1
    19     7     8    1
    20     8    22    1
    21    22    23    1
    22    23    24   ar
    23    24    25   ar
    24    25    26   ar
    25    26    27   ar
    26    27    29    1
    27    29    30   ar
    28    30    31   ar
    29    31    32   ar
    30    32    33   ar
    31    27    28   ar
    32    15    16   ar
    33    16    10   ar
    34    21    17   ar
    35     8     3    1
    36    28    23   ar
    37    33    29   ar
@<TRIPOS>MOLECULE
*****
 33 37 0 0 0
SMALL
GASTEIGER

@<TRIPOS>ATOM
      1 C          62.8249   88.1342   11.0244 C.2     1  UNL1        0.2506
      2 O          63.1685   89.5836   10.8474 O.2     1  UNL1       -0.2699
      3 N          63.2148   87.4194   12.2841 N.am    1  UNL1       -0.2723
      4 C          62.8712   85.9701   12.4611 C.3     1  UNL1        0.1257
      5 C          63.2612   85.2552   13.7209 C.3     1  UNL1        0.1637
      6 O          63.9948   85.9897   14.8036 O.3     1  UNL1       -0.3502
      7 C          64.3385   87.4391   14.6266 C.3     1  UNL1        0.1622
      8 C          63.9485   88.1539   13.3669 C.3     1  UNL1        0.1096
      9 C          62.7997   84.6447    7.1744 C.3     1  UNL1        0.0310
     10 C          62.0786   85.6550    8.0166 C.ar    1  UNL1       -0.0219
     11 C          60.6240   85.9308    7.7762 C.ar    1  UNL1       -0.0070
     12 C          59.9029   86.9411    8.6184 C.ar    1  UNL1       -0.0026
     13 C          58.4482   87.2169    8.3779 C.3     1  UNL1        0.0327
     14 C          60.6365   87.6756    9.7012 C.ar    1  UNL1        0.1032
     15 C          62.0912   87.3998    9.9416 C.ar    1  UNL1        0.0723
     16 C          62.8122   86.3895    9.0994 C.ar    1  UNL1        0.0018
     17 N          59.9155   88.6859   10.5434 N.ar    1  UNL1       -0.1480
     18 N          59.2351   88.4176   11.8530 N.ar    1  UNL1       -0.1447
     19 C          58.6474   89.7077   12.3430 C.ar    1  UNL1        0.1446
     20 C          58.9644   90.7734   11.3361 C.ar    1  UNL1        0.1446
     21 N          59.7482   90.1419   10.2240 N.ar    1  UNL1       -0.1447
     22 C          64.2922   89.6032   13.1898 C.3     1  UNL1        0.0488
     23 C          64.5602   90.4624   14.3898 C.ar    1  UNL1       -0.0189
     24 C          63.5102   90.6196   15.4493 C.ar    1  UNL1       -0.0041
     25 C          63.7782   91.4789   16.6493 C.ar    1  UNL1        0.0013
     26 C          65.0963   92.1809   16.7897 C.ar    1  UNL1        0.0209
     27 C          66.1464   92.0237   15.7301 C.ar    1  UNL1        0.1026
     28 C          65.8784   91.1645   14.5302 C.ar    1  UNL1        0.0167
     29 N          67.4645   92.7257   15.8705 N.ar    1  UNL1       -0.1478
     30 N          68.7781   92.0783   16.1953 N.ar    1  UNL1       -0.1447
     31 C          69.8259   93.1509   16.2363 C.ar    1  UNL1        0.1446
     32 C          69.1600   94.4612   15.9369 C.ar    1  UNL1        0.1446
     33 N          67.7005   94.1985   15.7108 N.ar    1  UNL1       -0.1447
@<TRIPOS>BOND
     1     9    10    1
     2    10    11   ar
     3    11    12   ar
     4    12    13    1
     5    12    14   ar
     6    14    17    1
     7    17    18   ar
     8    18    19   ar
     9    19    20   ar
    10    20    21   ar
    11    14    15   ar
    12    15     1    1
    13     1     2    2
    14     1     3   am
    15     3     4    1
    16     4     5    1
    17     5     6    1
    18     6     7    1
    19     7     8    1
    20     8    22    1
    21    22    23    1
    22    23    24   ar
    23    24    25   ar
    24    25    26   ar
    25    26    27   ar
    26    27    29    1
    27    29    30   ar
    28    30    31   ar
    29    31    32   ar
    30    32    33   ar
    31    27    28   ar
    32    15    16   ar
    33    16    10   ar
    34    21    17   ar
    35     8     3    1
    36    28    23   ar
    37    33    29   ar
@<TRIPOS>MOLECULE
*****
 33 37 0 0 0
SMALL
GASTEIGER

@<TRIPOS>ATOM
      1 C          62.8268   89.0051   11.8968 C.2     1  UNL1        0.2506
      2 O          62.9222   87.7644   12.7344 O.2     1  UNL1       -0.2699
      3 N          61.8473   89.0709   10.7627 N.am    1  UNL1       -0.2723
      4 C          61.7519   90.3116    9.9251 C.3     1  UNL1        0.1257
      5 C          60.7724   90.3774    8.7909 C.3     1  UNL1        0.1637
      6 O          59.8883   89.2025    8.4944 O.3     1  UNL1       -0.3502
      7 C          59.9837   87.9618    9.3320 C.3     1  UNL1        0.1622
      8 C          60.9632   87.8960   10.4661 C.3     1  UNL1        0.1096
      9 C          65.3408   93.2622   10.2976 C.3     1  UNL1        0.0310
     10 C          64.9679   92.3086   11.3937 C.ar    1  UNL1       -0.0219
     11 C          65.4791   92.5299   12.7864 C.ar    1  UNL1       -0.0070
     12 C          65.1062   91.5763   13.8826 C.ar    1  UNL1       -0.0026
     13 C          65.6174   91.7976   15.2754 C.3     1  UNL1        0.0327
     14 C          64.2221   90.4014   13.5861 C.ar    1  UNL1        0.1032
     15 C          63.7109   90.1801   12.1934 C.ar    1  UNL1        0.0723
     16 C          64.0838   91.1337   11.0972 C.ar    1  UNL1        0.0018
     17 N          63.8492   89.4478   14.6823 N.ar    1  UNL1       -0.1480
     18 N          64.4401   88.0874   14.9064 N.ar    1  UNL1       -0.1447
     19 C          63.7761   87.4860   16.1094 C.ar    1  UNL1        0.1446
     20 C          62.7747   88.4747   16.6288 C.ar    1  UNL1        0.1446
     21 N          62.8199   89.6871   15.7468 N.ar    1  UNL1       -0.1447
     22 C          61.0586   86.6553   11.3037 C.3     1  UNL1        0.0488
     23 C          61.9454   85.5252   10.8718 C.ar    1  UNL1       -0.0189
     24 C          62.6381   85.5813    9.5426 C.ar    1  UNL1       -0.0041
     25 C          63.5249   84.4512    9.1107 C.ar    1  UNL1        0.0013
     26 C          63.7189   83.2650   10.0080 C.ar    1  UNL1        0.0209
     27 C          63.0260   83.2088   11.3373 C.ar    1  UNL1        0.1026
     28 C          62.1393   84.3389   11.7691 C.ar    1  UNL1        0.0167
     29 N          63.2199   82.0226   12.2346 N.ar    1  UNL1       -0.1478
     30 N          64.2390   81.9019   13.3287 N.ar    1  UNL1       -0.1447
     31 C          64.0777   80.5535   13.9657 C.ar    1  UNL1        0.1446
     32 C          62.9590   79.8408   13.2653 C.ar    1  UNL1        0.1446
     33 N          62.4288   80.7487   12.1954 N.ar    1  UNL1       -0.1447
@<TRIPOS>BOND
     1     9    10    1
     2    10    11   ar
     3    11    12   ar
     4    12    13    1
     5    12    14   ar
     6    14    17    1
     7    17    18   ar
     8    18    19   ar
     9    19    20   ar
    10    20    21   ar
    11    14    15   ar
    12    15     1    1
    13     1     2    2
    14     1     3   am
    15     3     4    1
    16     4     5    1
    17     5     6    1
    18     6     7    1
    19     7     8    1
    20     8    22    1
    21    22    23    1
    22    23    24   ar
    23    24    25   ar
    24    25    26   ar
    25    26    27   ar
    26    27    29    1
    27    29    30   ar
    28    30    31   ar
    29    31    32   ar
    30    32    33   ar
    31    27    28   ar
    32    15    16   ar
    33    16    10   ar
    34    21    17   ar
    35     8     3    1
    36    28    23   ar
    37    33    29   ar
@<TRIPOS>MOLECULE
*****
 33 37 0 0 0
SMALL
GASTEIGER

@<TRIPOS>ATOM
      1 C          63.4656   88.3303   13.2786 C.2     1  UNL1        0.2506
      2 O          63.7408   89.5006   12.3816 O.2     1  UNL1       -0.2699
      3 N          63.3900   88.5254   14.7640 N.am    1  UNL1       -0.2723
      4 C          63.1148   87.3551   15.6610 C.3     1  UNL1        0.1257
      5 C          63.0393   87.5501   17.1464 C.3     1  UNL1        0.1637
      6 O          63.2390   88.9154   17.7347 O.3     1  UNL1       -0.3502
      7 C          63.5142   90.0857   16.8376 C.3     1  UNL1        0.1622
      8 C          63.5897   89.8907   15.3523 C.3     1  UNL1        0.1096
      9 C          64.4630   83.2309   13.3009 C.3     1  UNL1        0.0310
     10 C          63.7646   84.4153   12.7015 C.ar    1  UNL1       -0.0219
     11 C          62.8666   84.2345   11.5138 C.ar    1  UNL1       -0.0070
     12 C          62.1682   85.4189   10.9143 C.ar    1  UNL1       -0.0026
     13 C          61.2701   85.2380    9.7265 C.3     1  UNL1        0.0327
     14 C          62.3678   86.7842   11.5026 C.ar    1  UNL1        0.1032
     15 C          63.2659   86.9650   12.6903 C.ar    1  UNL1        0.0723
     16 C          63.9643   85.7806   13.2898 C.ar    1  UNL1        0.0018
     17 N          61.6694   87.9686   10.9031 N.ar    1  UNL1       -0.1480
     18 N          62.0833   88.7006    9.6609 N.ar    1  UNL1       -0.1447
     19 C          61.1042   89.8134    9.4307 C.ar    1  UNL1        0.1446
     20 C          60.0852   89.7692   10.5306 C.ar    1  UNL1        0.1446
     21 N          60.4346   88.6291   11.4406 N.ar    1  UNL1       -0.1447
     22 C          63.8650   91.0610   14.4552 C.3     1  UNL1        0.0488
     23 C          65.2792   91.4735   14.1732 C.ar    1  UNL1       -0.0189
     24 C          66.3099   91.4106   15.2611 C.ar    1  UNL1       -0.0041
     25 C          67.7243   91.8231   14.9791 C.ar    1  UNL1        0.0013
     26 C          68.1079   92.2985   13.6091 C.ar    1  UNL1        0.0209
     27 C          67.0771   92.3613   12.5212 C.ar    1  UNL1        0.1026
     28 C          65.6628   91.9488   12.8032 C.ar    1  UNL1        0.0167
     29 N          67.4607   92.8367   11.1512 N.ar    1  UNL1       -0.1478
     30 N          67.2328   94.2128   10.5995 N.ar    1  UNL1       -0.1447
     31 C          67.7708   94.2460    9.1997 C.ar    1  UNL1        0.1446
     32 C          68.3313   92.8904    8.8862 C.ar    1  UNL1        0.1446
     33 N          68.1397   92.0194   10.0923 N.ar    1  UNL1       -0.1447
@<TRIPOS>BOND
     1     9    10    1
     2    10    11   ar
     3    11    12   ar
     4    12    13    1
     5    12    14   ar
     6    14    17    1
     7    17    18   ar
     8    18    19   ar
     9    19    20   ar
    10    20    21   ar
    11    14    15   ar
    12    15     1    1
    13     1     2    2
    14     1     3   am
    15     3     4    1
    16     4     5    1
    17     5     6    1
    18     6     7    1
    19     7     8    1
    20     8    22    1
    21    22    23    1
    22    23    24   ar
    23    24    25   ar
    24    25    26   ar
    25    26    27   ar
    26    27    29    1
    27    29    30   ar
    28    30    31   ar
    29    31    32   ar
    30    32    33   ar
    31    27    28   ar
    32    15    16   ar
    33    16    10   ar
    34    21    17   ar
    35     8     3    1
    36    28    23   ar
    37    33    29   ar
@<TRIPOS>MOLECULE
*****
 33 37 0 0 0
SMALL
GASTEIGER

@<TRIPOS>ATOM
      1 C          62.4928   94.1427   -2.1829 C.2     1  UNL1        0.2506
      2 O          61.2764   93.5560   -1.5302 O.2     1  UNL1       -0.2699
      3 N          63.4355   94.9937   -1.3847 N.am    1  UNL1       -0.2723
      4 C          64.6520   95.5804   -2.0374 C.3     1  UNL1        0.1257
      5 C          65.5947   96.4313   -1.2392 C.3     1  UNL1        0.1637
      6 O          65.3210   96.6955    0.2118 O.3     1  UNL1       -0.3502
      7 C          64.1046   96.1088    0.8645 C.3     1  UNL1        0.1622
      8 C          63.1618   95.2579    0.0663 C.3     1  UNL1        0.1096
      9 C          65.5220   92.1383   -5.8986 C.3     1  UNL1        0.0310
     10 C          64.2811   92.8763   -5.4917 C.ar    1  UNL1       -0.0219
     11 C          63.3139   93.3500   -6.5357 C.ar    1  UNL1       -0.0070
     12 C          62.0730   94.0880   -6.1289 C.ar    1  UNL1       -0.0026
     13 C          61.1057   94.5617   -7.1730 C.3     1  UNL1        0.0327
     14 C          61.7993   94.3522   -4.6779 C.ar    1  UNL1        0.1032
     15 C          62.7665   93.8785   -3.6339 C.ar    1  UNL1        0.0723
     16 C          64.0074   93.1405   -4.0408 C.ar    1  UNL1        0.0018
     17 N          60.5584   95.0902   -4.2711 N.ar    1  UNL1       -0.1480
     18 N          60.4757   96.5433   -3.9083 N.ar    1  UNL1       -0.1447
     19 C          59.0485   96.8558   -3.5685 C.ar    1  UNL1        0.1446
     20 C          58.2491   95.5958   -3.7213 C.ar    1  UNL1        0.1446
     21 N          59.1822   94.5046   -4.1555 N.ar    1  UNL1       -0.1447
     22 C          61.9454   94.6712    0.7190 C.3     1  UNL1        0.0488
     23 C          62.0872   93.5262    1.6776 C.ar    1  UNL1       -0.0189
     24 C          63.3970   92.8049    1.7958 C.ar    1  UNL1       -0.0041
     25 C          63.5389   91.6599    2.7544 C.ar    1  UNL1        0.0013
     26 C          62.3708   91.2362    3.5948 C.ar    1  UNL1        0.0209
     27 C          61.0610   91.9576    3.4766 C.ar    1  UNL1        0.1026
     28 C          60.9192   93.1026    2.5180 C.ar    1  UNL1        0.0167
     29 N          59.8929   91.5340    4.3170 N.ar    1  UNL1       -0.1478
     30 N          59.9355   90.5655    5.4616 N.ar    1  UNL1       -0.1447
     31 C          58.5461   90.4374    6.0124 C.ar    1  UNL1        0.1446
     32 C          57.6449   91.3268    5.2081 C.ar    1  UNL1        0.1446
     33 N          58.4772   92.0046    4.1603 N.ar    1  UNL1       -0.1447
@<TRIPOS>BOND
     1     9    10    1
     2    10    11   ar
     3    11    12   ar
     4    12    13    1
     5    12    14   ar
     6    14    17    1
     7    17    18   ar
     8    18    19   ar
     9    19    20   ar
    10    20    21   ar
    11    14    15   ar
    12    15     1    1
    13     1     2    2
    14     1     3   am
    15     3     4    1
    16     4     5    1
    17     5     6    1
    18     6     7    1
    19     7     8    1
    20     8    22    1
    21    22    23    1
    22    23    24   ar
    23    24    25   ar
    24    25    26   ar
    25    26    27   ar
    26    27    29    1
    27    29    30   ar
    28    30    31   ar
    29    31    32   ar
    30    32    33   ar
    31    27    28   ar
    32    15    16   ar
    33    16    10   ar
    34    21    17   ar
    35     8     3    1
    36    28    23   ar
    37    33    29   ar
