@<TRIPOS>MOLECULE
*****
 32 35 0 0 0
SMALL
GASTEIGER

@<TRIPOS>ATOM
      1 C          64.3957   89.9352   14.4568 C.2     1  UNL1        0.2456
      2 O          62.9158   89.9964   14.6933 O.2     1  UNL1       -0.2729
      3 N          65.1206   88.6272   14.5743 N.am    1  UNL1       -0.2628
      4 H          66.0919   88.5871   14.4191 H       1  UNL1        0.1568
      5 C          63.4401   90.2584   11.6461 C.3     1  UNL1        0.0948
      6 C          64.3036   91.4833   11.5855 C.2     1  UNL1        0.2266
      7 O          64.3623   92.2981   10.3274 O.2     1  UNL1       -0.2748
      8 N          65.1085   91.8936   12.7829 N.am    1  UNL1       -0.2708
      9 C          66.0124   93.0875   12.8708 C.3     1  UNL1        0.0983
     10 C          66.6134   93.1137   14.2449 C.3     1  UNL1        0.0266
     11 C          66.0809   91.9361   15.0063 C.3     1  UNL1        0.0313
     12 C          65.1508   91.1820   14.1027 C.3     1  UNL1        0.1523
     13 C          66.2700   94.0807   11.7766 C.ar    1  UNL1       -0.0043
     14 C          66.9120   93.6361   10.4960 C.ar    1  UNL1       -0.0027
     15 C          67.1696   94.6293    9.4019 C.ar    1  UNL1       -0.0003
     16 C          66.7853   96.0672    9.5885 C.ar    1  UNL1       -0.0000
     17 C          66.1433   96.5118   10.8691 C.ar    1  UNL1       -0.0003
     18 C          65.8857   95.5186   11.9632 C.ar    1  UNL1       -0.0027
     19 C          64.3655   87.3805   14.9284 C.ar    1  UNL1        0.1656
     20 N          63.4905   87.1915   16.1320 N.ar    1  UNL1       -0.2224
     21 C          62.9371   85.7980   16.0885 C.ar    1  UNL1        0.1073
     22 C          63.4700   85.1258   14.8580 C.ar    1  UNL1        0.0512
     23 S          64.3528   86.1039   14.1410 S.2     1  UNL1       -0.0513
     24 C          63.1723   83.7221   14.4212 C.ar    1  UNL1        0.0077
     25 C          61.9060   83.0512   14.8646 C.ar    1  UNL1        0.0018
     26 C          61.6083   81.6474   14.4278 C.ar    1  UNL1        0.0141
     27 C          62.5768   80.9145   13.5476 C.ar    1  UNL1        0.0415
     28 N          62.2792   79.5108   13.1108 N.pl3   1  UNL1       -0.3570
     29 C          63.8430   81.5854   13.1041 C.ar    1  UNL1        0.0141
     30 C          64.1408   82.9892   13.5409 C.ar    1  UNL1        0.0018
     31 H          61.4481   79.0705   13.4018 H       1  UNL1        0.1424
     32 H          62.9148   79.0298   12.5330 H       1  UNL1        0.1424
@<TRIPOS>BOND
     1     5     6    1
     2     6     7    2
     3     6     8   am
     4     8     9    1
     5     9    13    1
     6    13    14   ar
     7    14    15   ar
     8    15    16   ar
     9    16    17   ar
    10    17    18   ar
    11     9    10    1
    12    10    11    1
    13    11    12    1
    14    12     1    1
    15     1     2    2
    16     1     3   am
    17     3    19    1
    18    19    20   ar
    19    20    21   ar
    20    21    22   ar
    21    22    24    1
    22    24    25   ar
    23    25    26   ar
    24    26    27   ar
    25    27    28    1
    26    27    29   ar
    27    29    30   ar
    28    22    23   ar
    29    12     8    1
    30    23    19   ar
    31    18    13   ar
    32    30    24   ar
    33     3     4    1
    34    28    31    1
    35    28    32    1
@<TRIPOS>MOLECULE
*****
 32 35 0 0 0
SMALL
GASTEIGER

@<TRIPOS>ATOM
      1 C          64.1247   89.0015   14.3948 C.2     1  UNL1        0.2456
      2 O          62.9175   89.8674   14.1877 O.2     1  UNL1       -0.2729
      3 N          65.4993   89.5833   14.2471 N.am    1  UNL1       -0.2628
      4 H          66.2917   89.0150   14.3831 H       1  UNL1        0.1568
      5 C          63.1626   87.9978   11.7520 C.3     1  UNL1        0.0948
      6 C          63.0951   86.6417   12.3896 C.2     1  UNL1        0.2266
      7 O          62.6387   85.4584   11.5888 O.2     1  UNL1       -0.2748
      8 N          63.4840   86.4691   13.8280 N.am    1  UNL1       -0.2708
      9 C          63.4679   85.1814   14.5972 C.3     1  UNL1        0.0983
     10 C          63.9312   85.4702   15.9943 C.3     1  UNL1        0.0266
     11 C          64.2336   86.9364   16.0886 C.3     1  UNL1        0.0313
     12 C          63.9572   87.5537   14.7497 C.3     1  UNL1        0.1523
     13 C          63.0601   83.8403   14.0631 C.ar    1  UNL1       -0.0043
     14 C          63.8103   83.2299   12.9165 C.ar    1  UNL1       -0.0027
     15 C          63.4024   81.8889   12.3824 C.ar    1  UNL1       -0.0003
     16 C          62.2444   81.1583   12.9949 C.ar    1  UNL1       -0.0000
     17 C          61.4942   81.7686   14.1414 C.ar    1  UNL1       -0.0003
     18 C          61.9020   83.1096   14.6755 C.ar    1  UNL1       -0.0027
     19 C          65.6668   91.0311   13.8923 C.ar    1  UNL1        0.1656
     20 N          65.4666   92.1945   14.8176 N.ar    1  UNL1       -0.2224
     21 C          65.7399   93.4520   14.0470 C.ar    1  UNL1        0.1073
     22 C          66.1091   93.0658   12.6454 C.ar    1  UNL1        0.0512
     23 S          66.0639   91.5695   12.5498 S.2     1  UNL1       -0.0513
     24 C          66.4615   94.0101   11.5345 C.ar    1  UNL1        0.0077
     25 C          67.1277   93.4932   10.2939 C.ar    1  UNL1        0.0018
     26 C          67.4802   94.4375    9.1830 C.ar    1  UNL1        0.0141
     27 C          67.1665   95.8986    9.3127 C.ar    1  UNL1        0.0415
     28 N          67.5190   96.8428    8.2018 N.pl3   1  UNL1       -0.3570
     29 C          66.5004   96.4154   10.5532 C.ar    1  UNL1        0.0141
     30 C          66.1479   95.4712   11.6642 C.ar    1  UNL1        0.0018
     31 H          67.9562   96.5036    7.3875 H       1  UNL1        0.1424
     32 H          67.3131   97.8018    8.2869 H       1  UNL1        0.1424
@<TRIPOS>BOND
     1     5     6    1
     2     6     7    2
     3     6     8   am
     4     8     9    1
     5     9    13    1
     6    13    14   ar
     7    14    15   ar
     8    15    16   ar
     9    16    17   ar
    10    17    18   ar
    11     9    10    1
    12    10    11    1
    13    11    12    1
    14    12     1    1
    15     1     2    2
    16     1     3   am
    17     3    19    1
    18    19    20   ar
    19    20    21   ar
    20    21    22   ar
    21    22    24    1
    22    24    25   ar
    23    25    26   ar
    24    26    27   ar
    25    27    28    1
    26    27    29   ar
    27    29    30   ar
    28    22    23   ar
    29    12     8    1
    30    23    19   ar
    31    18    13   ar
    32    30    24   ar
    33     3     4    1
    34    28    31    1
    35    28    32    1
