@<TRIPOS>MOLECULE
*****
 36 40 0 0 0
SMALL
GASTEIGER

@<TRIPOS>ATOM
      1 C          58.5461   93.1720   -0.1285 C.3     1  UNL1        0.0474
      2 C          60.0185   93.4087    0.0325 C.3     1  UNL1        0.1700
      3 O          60.8897   92.8412    1.1136 O.3     1  UNL1       -0.4520
      4 C          62.2879   93.3362    0.8900 C.2     1  UNL1        0.3214
      5 O          63.2397   92.8192    1.9276 O.2     1  UNL1       -0.2497
      6 C          62.2808   94.2098   -0.3294 C.3     1  UNL1        0.1329
      7 C          63.3703   94.9702   -1.0256 C.3     1  UNL1        0.0829
      8 C          63.0572   95.7755   -2.2518 C.3     1  UNL1        0.2649
      9 F          63.2552   96.6735   -3.4369 F       1  UNL1       -0.2043
     10 F          64.5285   96.0426   -2.1335 F       1  UNL1       -0.2043
     11 C          61.6547   95.8203   -2.7817 C.3     1  UNL1        0.0655
     12 C          61.3416   96.6256   -4.0080 C.3     1  UNL1        0.0060
     13 C          60.5652   95.0598   -2.0855 C.3     1  UNL1        0.0317
     14 C          60.8783   94.2546   -0.8593 C.3     1  UNL1        0.0598
     15 C          63.6288   94.0707    0.3137 C.ar    1  UNL1        0.0628
     16 C          64.1724   94.9297    1.4167 C.ar    1  UNL1        0.0370
     17 C          65.5495   94.4381    1.7514 C.ar    1  UNL1        0.1211
     18 N          65.8570   93.2753    0.8552 N.ar    1  UNL1       -0.1714
     19 N          64.6700   93.0482   -0.0334 N.ar    1  UNL1       -0.2792
     20 H          64.5885   92.3506   -0.7232 H       1  UNL1        0.1886
     21 C          59.1626   95.1047   -2.6155 C.2     1  UNL1       -0.0246
     22 C          58.1843   96.0997   -2.0651 C.2     1  UNL1        0.0145
     23 C          56.7818   96.1445   -2.5951 C.ar    1  UNL1        0.0810
     24 C          55.6638   95.5230   -1.8117 C.ar    1  UNL1        0.0191
     25 C          54.2612   95.5678   -2.3417 C.ar    1  UNL1        0.0031
     26 C          53.9767   96.2340   -3.6552 C.ar    1  UNL1        0.0198
     27 C          55.0948   96.8555   -4.4387 C.ar    1  UNL1        0.0988
     28 N          56.4974   96.8107   -3.9086 N.ar    1  UNL1       -0.2438
     29 C          52.5742   96.2788   -4.1852 C.ar    1  UNL1        0.0111
     30 C          51.4206   96.4442   -3.2410 C.ar    1  UNL1        0.0007
     31 C          50.0181   96.4890   -3.7710 C.ar    1  UNL1        0.0000
     32 C          49.7693   96.3684   -5.2453 C.ar    1  UNL1        0.0007
     33 C          50.9229   96.2030   -6.1896 C.ar    1  UNL1        0.0103
     34 C          52.3254   96.1582   -5.6595 C.ar    1  UNL1        0.0685
     35 C          53.4791   95.9928   -6.6038 C.1     1  UNL1        0.1004
     36 N          54.6328   95.8275   -7.5480 N.1     1  UNL1       -0.1908
@<TRIPOS>BOND
     1     2     1    1
     2     2     3    1
     3     3     4    1
     4     4     5    2
     5     4     6    1
     6     6    15    1
     7    15    16   ar
     8    16    17   ar
     9    17    18   ar
    10    18    19   ar
    11     6     7    1
    12     7     8    1
    13     8     9    1
    14     8    10    1
    15     8    11    1
    16    11    12    1
    17    11    13    1
    18    13    21    1
    19    21    22    2
    20    22    23    1
    21    23    24   ar
    22    24    25   ar
    23    25    26   ar
    24    26    29    1
    25    29    30   ar
    26    30    31   ar
    27    31    32   ar
    28    32    33   ar
    29    33    34   ar
    30    34    35    1
    31    35    36    3
    32    26    27   ar
    33    27    28   ar
    34    13    14    1
    35    14     2    1
    36    14     6    1
    37    19    15   ar
    38    28    23   ar
    39    34    29   ar
    40    19    20    1
@<TRIPOS>MOLECULE
*****
 36 40 0 0 0
SMALL
GASTEIGER

@<TRIPOS>ATOM
      1 C          63.3361   86.2479    9.9868 C.3     1  UNL1        0.0474
      2 C          63.0654   85.2043   11.0297 C.3     1  UNL1        0.1700
      3 O          62.6403   83.7892   10.7715 O.3     1  UNL1       -0.4520
      4 C          62.4844   83.1030   12.0962 C.2     1  UNL1        0.3214
      5 O          62.0586   81.6730   11.9415 O.2     1  UNL1       -0.2497
      6 C          62.8132   84.0940   13.1731 C.3     1  UNL1        0.1329
      7 C          62.8320   83.9816   14.6688 C.3     1  UNL1        0.0829
      8 C          63.2099   85.1679   15.5053 C.3     1  UNL1        0.2649
      9 F          63.4978   86.0040   16.7169 F       1  UNL1       -0.2043
     10 F          62.9508   84.1596   16.5852 F       1  UNL1       -0.2043
     11 C          63.5689   86.4666   14.8462 C.3     1  UNL1        0.0655
     12 C          63.9468   87.6530   15.6828 C.3     1  UNL1        0.0060
     13 C          63.5501   86.5790   13.3505 C.3     1  UNL1        0.0317
     14 C          63.1722   85.3927   12.5140 C.3     1  UNL1        0.0598
     15 C          62.4322   82.7376   13.6878 C.ar    1  UNL1        0.0628
     16 C          61.0346   82.2244   13.8705 C.ar    1  UNL1        0.0370
     17 C          61.1205   80.8258   14.4058 C.ar    1  UNL1        0.1211
     18 N          62.5712   80.4746   14.5541 N.ar    1  UNL1       -0.1714
     19 N          63.3819   81.6562   14.1103 N.ar    1  UNL1       -0.2792
     20 H          64.3647   81.7120   14.0985 H       1  UNL1        0.1886
     21 C          63.9092   87.8778   12.6914 C.2     1  UNL1       -0.0246
     22 C          64.2887   89.0636   13.5280 C.2     1  UNL1        0.0145
     23 C          64.6478   90.3623   12.8688 C.ar    1  UNL1        0.0810
     24 C          63.9513   90.7812   11.6081 C.ar    1  UNL1        0.0191
     25 C          64.3103   92.0799   10.9489 C.ar    1  UNL1        0.0031
     26 C          65.3658   92.9597   11.5505 C.ar    1  UNL1        0.0198
     27 C          66.0623   92.5408   12.8113 C.ar    1  UNL1        0.0988
     28 N          65.7033   91.2420   13.4704 N.ar    1  UNL1       -0.2438
     29 C          65.7249   94.2584   10.8914 C.ar    1  UNL1        0.0111
     30 C          64.9592   95.5048   11.2234 C.ar    1  UNL1        0.0007
     31 C          65.3182   96.8035   10.5643 C.ar    1  UNL1        0.0000
     32 C          66.4429   96.8558    9.5732 C.ar    1  UNL1        0.0007
     33 C          67.2086   95.6094    9.2411 C.ar    1  UNL1        0.0103
     34 C          66.8496   94.3107    9.9003 C.ar    1  UNL1        0.0685
     35 C          67.6152   93.0643    9.5683 C.1     1  UNL1        0.1004
     36 N          68.3809   91.8179    9.2363 N.1     1  UNL1       -0.1908
@<TRIPOS>BOND
     1     2     1    1
     2     2     3    1
     3     3     4    1
     4     4     5    2
     5     4     6    1
     6     6    15    1
     7    15    16   ar
     8    16    17   ar
     9    17    18   ar
    10    18    19   ar
    11     6     7    1
    12     7     8    1
    13     8     9    1
    14     8    10    1
    15     8    11    1
    16    11    12    1
    17    11    13    1
    18    13    21    1
    19    21    22    2
    20    22    23    1
    21    23    24   ar
    22    24    25   ar
    23    25    26   ar
    24    26    29    1
    25    29    30   ar
    26    30    31   ar
    27    31    32   ar
    28    32    33   ar
    29    33    34   ar
    30    34    35    1
    31    35    36    3
    32    26    27   ar
    33    27    28   ar
    34    13    14    1
    35    14     2    1
    36    14     6    1
    37    19    15   ar
    38    28    23   ar
    39    34    29   ar
    40    19    20    1
@<TRIPOS>MOLECULE
*****
 36 40 0 0 0
SMALL
GASTEIGER

@<TRIPOS>ATOM
      1 C          63.6700   85.3289   10.2285 C.3     1  UNL1        0.0474
      2 C          63.3031   84.2371   11.1895 C.3     1  UNL1        0.1700
      3 O          62.9720   82.8193   10.8286 O.3     1  UNL1       -0.4520
      4 C          62.6673   82.0774   12.0961 C.2     1  UNL1        0.3214
      5 O          62.3221   80.6408   11.8371 O.2     1  UNL1       -0.2497
      6 C          62.8100   83.0366   13.2404 C.3     1  UNL1        0.1329
      7 C          62.6330   82.8671   14.7203 C.3     1  UNL1        0.0829
      8 C          62.8489   84.0324   15.6398 C.3     1  UNL1        0.2649
      9 F          62.9392   84.8303   16.9067 F       1  UNL1       -0.2043
     10 F          62.4873   82.9748   16.6401 F       1  UNL1       -0.2043
     11 C          63.2419   85.3671   15.0795 C.3     1  UNL1        0.0655
     12 C          63.4578   86.5324   15.9990 C.3     1  UNL1        0.0060
     13 C          63.4190   85.5366   13.5996 C.3     1  UNL1        0.0317
     14 C          63.2030   84.3714   12.6801 C.3     1  UNL1        0.0598
     15 C          62.4169   81.6491   13.6529 C.ar    1  UNL1        0.0628
     16 C          61.0164   81.1566   13.8676 C.ar    1  UNL1        0.0370
     17 C          61.0891   79.7135   14.2704 C.ar    1  UNL1        0.1211
     18 N          62.5345   79.3141   14.3047 N.ar    1  UNL1       -0.1714
     19 N          63.3551   80.5104   13.9230 N.ar    1  UNL1       -0.2792
     20 H          64.3371   80.5425   13.8608 H       1  UNL1        0.1886
     21 C          63.8120   86.8715   13.0393 C.2     1  UNL1       -0.0246
     22 C          63.8693   88.0733   13.9350 C.2     1  UNL1        0.0145
     23 C          64.2623   89.4081   13.3746 C.ar    1  UNL1        0.0810
     24 C          63.5630   89.9480   12.1625 C.ar    1  UNL1        0.0191
     25 C          63.9559   91.2827   11.6020 C.ar    1  UNL1        0.0031
     26 C          65.0483   92.0776   12.2539 C.ar    1  UNL1        0.0198
     27 C          65.7477   91.5377   13.4661 C.ar    1  UNL1        0.0988
     28 N          65.3547   90.2029   14.0265 N.ar    1  UNL1       -0.2438
     29 C          65.4413   93.4124   11.6935 C.ar    1  UNL1        0.0111
     30 C          65.0629   93.7767   10.2885 C.ar    1  UNL1        0.0007
     31 C          65.4559   95.1115    9.7282 C.ar    1  UNL1        0.0000
     32 C          66.2272   96.0818   10.5729 C.ar    1  UNL1        0.0007
     33 C          66.6056   95.7175   11.9779 C.ar    1  UNL1        0.0103
     34 C          66.2126   94.3827   12.5382 C.ar    1  UNL1        0.0685
     35 C          66.5909   94.0183   13.9432 C.1     1  UNL1        0.1004
     36 N          66.9693   93.6539   15.3482 N.1     1  UNL1       -0.1908
@<TRIPOS>BOND
     1     2     1    1
     2     2     3    1
     3     3     4    1
     4     4     5    2
     5     4     6    1
     6     6    15    1
     7    15    16   ar
     8    16    17   ar
     9    17    18   ar
    10    18    19   ar
    11     6     7    1
    12     7     8    1
    13     8     9    1
    14     8    10    1
    15     8    11    1
    16    11    12    1
    17    11    13    1
    18    13    21    1
    19    21    22    2
    20    22    23    1
    21    23    24   ar
    22    24    25   ar
    23    25    26   ar
    24    26    29    1
    25    29    30   ar
    26    30    31   ar
    27    31    32   ar
    28    32    33   ar
    29    33    34   ar
    30    34    35    1
    31    35    36    3
    32    26    27   ar
    33    27    28   ar
    34    13    14    1
    35    14     2    1
    36    14     6    1
    37    19    15   ar
    38    28    23   ar
    39    34    29   ar
    40    19    20    1
@<TRIPOS>MOLECULE
*****
 36 40 0 0 0
SMALL
GASTEIGER

@<TRIPOS>ATOM
      1 C          63.3574   90.3115   10.0016 C.3     1  UNL1        0.0474
      2 C          64.0681   91.5436   10.4778 C.3     1  UNL1        0.1700
      3 O          64.2575   92.8098    9.6963 O.3     1  UNL1       -0.4520
      4 C          65.0206   93.7746   10.5547 C.2     1  UNL1        0.3214
      5 O          65.2612   95.0798    9.8556 O.2     1  UNL1       -0.2497
      6 C          65.3029   93.1047   11.8667 C.3     1  UNL1        0.1329
      7 C          66.0199   93.5720   13.0986 C.3     1  UNL1        0.0829
      8 C          66.1482   92.6605   14.2829 C.3     1  UNL1        0.2649
      9 F          66.5267   92.1686   15.6485 F       1  UNL1       -0.2043
     10 F          66.8683   93.8685   14.8047 F       1  UNL1       -0.2043
     11 C          65.5596   91.2818   14.2355 C.3     1  UNL1        0.0655
     12 C          65.6879   90.3702   15.4199 C.3     1  UNL1        0.0060
     13 C          64.8425   90.8143   13.0036 C.3     1  UNL1        0.0317
     14 C          64.7142   91.7258   11.8192 C.3     1  UNL1        0.0598
     15 C          65.8373   94.5028   11.7681 C.ar    1  UNL1        0.0628
     16 C          66.8291   94.9983   10.7578 C.ar    1  UNL1        0.0370
     17 C          67.0786   96.4526   11.0278 C.ar    1  UNL1        0.1211
     18 N          66.2410   96.8558   12.2050 N.ar    1  UNL1       -0.1714
     19 N          65.4738   95.6507   12.6626 N.ar    1  UNL1       -0.2792
     20 H          64.8426   95.6188   13.4174 H       1  UNL1        0.1886
     21 C          64.2538   89.4355   12.9562 C.2     1  UNL1       -0.0246
     22 C          64.8178   88.3490   13.8230 C.2     1  UNL1        0.0145
     23 C          64.2291   86.9702   13.7755 C.ar    1  UNL1        0.0810
     24 C          64.6669   85.9332   14.7669 C.ar    1  UNL1        0.0191
     25 C          64.0782   84.5543   14.7195 C.ar    1  UNL1        0.0031
     26 C          63.0516   84.2125   13.6806 C.ar    1  UNL1        0.0198
     27 C          62.6138   85.2495   12.6892 C.ar    1  UNL1        0.0988
     28 N          63.2025   86.6284   12.7366 N.ar    1  UNL1       -0.2438
     29 C          62.4629   82.8336   13.6332 C.ar    1  UNL1        0.0111
     30 C          61.4615   82.4098   14.6663 C.ar    1  UNL1        0.0007
     31 C          60.8727   81.0310   14.6188 C.ar    1  UNL1        0.0000
     32 C          61.2855   80.0761   13.5382 C.ar    1  UNL1        0.0007
     33 C          62.2869   80.4999   12.5051 C.ar    1  UNL1        0.0103
     34 C          62.8756   81.8787   12.5525 C.ar    1  UNL1        0.0685
     35 C          63.8771   82.3026   11.5194 C.1     1  UNL1        0.1004
     36 N          64.8786   82.7265   10.4863 N.1     1  UNL1       -0.1908
@<TRIPOS>BOND
     1     2     1    1
     2     2     3    1
     3     3     4    1
     4     4     5    2
     5     4     6    1
     6     6    15    1
     7    15    16   ar
     8    16    17   ar
     9    17    18   ar
    10    18    19   ar
    11     6     7    1
    12     7     8    1
    13     8     9    1
    14     8    10    1
    15     8    11    1
    16    11    12    1
    17    11    13    1
    18    13    21    1
    19    21    22    2
    20    22    23    1
    21    23    24   ar
    22    24    25   ar
    23    25    26   ar
    24    26    29    1
    25    29    30   ar
    26    30    31   ar
    27    31    32   ar
    28    32    33   ar
    29    33    34   ar
    30    34    35    1
    31    35    36    3
    32    26    27   ar
    33    27    28   ar
    34    13    14    1
    35    14     2    1
    36    14     6    1
    37    19    15   ar
    38    28    23   ar
    39    34    29   ar
    40    19    20    1
