@<TRIPOS>MOLECULE
*****
 25 29 0 0 0
SMALL
GASTEIGER

@<TRIPOS>ATOM
      1 C          63.7010   82.9308   12.6620 C.2     1  UNL1        0.0959
      2 C          64.5818   82.1081   11.7691 C.2     1  UNL1        0.1049
      3 N          64.4998   82.6783   10.3842 N.2     1  UNL1       -0.2475
      4 C          63.5684   83.8534   10.4211 C.2     1  UNL1        0.0670
      5 C          63.1060   84.8016    9.3547 C.3     1  UNL1        0.1127
      6 C          62.1498   85.9058    9.6961 C.2     1  UNL1        0.1558
      7 C          61.6561   86.0619   11.1038 C.2     1  UNL1        0.1686
      8 C          62.1185   85.1137   12.1703 C.2     1  UNL1        0.0411
      9 C          63.0746   84.0095   11.8289 C.2     1  UNL1        0.0249
     10 O          60.7000   87.1661   11.4452 O.2     1  UNL1       -0.4687
     11 C          60.2376   88.1142   10.3788 C.3     1  UNL1        0.2526
     12 C          60.7313   87.9581    8.9711 C.3     1  UNL1        0.2521
     13 O          61.6874   86.8539    8.6297 O.2     1  UNL1       -0.4723
     14 O          62.5129   81.6707   14.5986 O.2     1  UNL1       -0.2448
     15 C          63.4845   82.7131   14.1302 C.2     1  UNL1        0.3428
     16 O          64.2396   83.5378   15.1301 O.3     1  UNL1       -0.4454
     17 C          64.7721   84.8853   14.7418 C.3     1  UNL1        0.2087
     18 C          64.2103   86.1242   15.3739 C.3     1  UNL1        0.0445
     19 C          64.4175   87.4590   14.7216 C.3     1  UNL1        0.0210
     20 C          63.8557   88.6979   15.3537 C.3     1  UNL1        0.0722
     21 N          63.0868   88.6019   16.6381 N.3     1  UNL1       -0.2727
     22 C          62.8796   87.2672   17.2903 C.3     1  UNL1        0.0722
     23 C          63.4414   86.0283   16.6582 C.3     1  UNL1        0.0210
     24 C          63.3756   87.8955   16.3293 C.3     1  UNL1        0.0722
     25 C          63.8835   86.7752   15.7578 C.3     1  UNL1        0.0210
@<TRIPOS>BOND
     1    14    15    2
     2    15    16    1
     3    16    17    1
     4    17    18    1
     5    18    19    1
     6    19    20    1
     7    20    21    1
     8    21    22    1
     9    22    23    1
    10    21    24    1
    11    24    25    1
    12    15     1    1
    13     1     2    2
    14     2     3    1
    15     3     4    2
    16     4     5    1
    17     5     6    1
    18     6     7    2
    19     7     8    1
    20     8     9    2
    21     7    10    1
    22    10    11    1
    23    11    12    1
    24    12    13    1
    25    23    18    1
    26     9     1    1
    27    25    18    1
    28     9     4    1
    29    13     6    1
@<TRIPOS>MOLECULE
*****
 25 29 0 0 0
SMALL
GASTEIGER

@<TRIPOS>ATOM
      1 C          63.4556   89.3728   12.7074 C.2     1  UNL1        0.0959
      2 C          63.9573   88.2214   13.5276 C.2     1  UNL1        0.1049
      3 N          63.3797   86.9599   12.9575 N.2     1  UNL1       -0.2475
      4 C          62.5211   87.3316   11.7851 C.2     1  UNL1        0.0670
      5 C          61.7026   86.5048   10.8384 C.3     1  UNL1        0.1127
      6 C          60.9309   87.1693    9.7369 C.2     1  UNL1        0.1558
      7 C          60.9778   88.6605    9.5823 C.2     1  UNL1        0.1686
      8 C          61.7964   89.4873   10.5292 C.2     1  UNL1        0.0411
      9 C          62.5680   88.8228   11.6305 C.2     1  UNL1        0.0249
     10 O          60.2062   89.3250    8.4810 O.2     1  UNL1       -0.4687
     11 C          59.3877   88.4982    7.5342 C.3     1  UNL1        0.2526
     12 C          59.3408   87.0070    7.6888 C.3     1  UNL1        0.2521
     13 O          60.1124   86.3425    8.7902 O.2     1  UNL1       -0.4723
     14 O          63.4897   91.4646   14.2479 O.2     1  UNL1       -0.2448
     15 C          63.7839   90.8200   12.9258 C.2     1  UNL1        0.3428
     16 O          64.4065   91.6227   11.8221 O.3     1  UNL1       -0.4454
     17 C          65.6219   92.4581   12.0958 C.3     1  UNL1        0.2087
     18 C          66.4185   93.0193   10.9554 C.3     1  UNL1        0.0445
     19 C          66.0747   94.3660   10.3914 C.3     1  UNL1        0.0210
     20 C          66.8714   94.9272    9.2511 C.3     1  UNL1        0.0722
     21 N          68.0119   94.1416    8.6747 N.3     1  UNL1       -0.2727
     22 C          68.3557   92.7949    9.2387 C.3     1  UNL1        0.0722
     23 C          67.5590   92.2337   10.3791 C.3     1  UNL1        0.0210
     24 C          67.6042   93.7928    9.2992 C.3     1  UNL1        0.0722
     25 C          66.8839   93.2853   10.3304 C.3     1  UNL1        0.0210
@<TRIPOS>BOND
     1    14    15    2
     2    15    16    1
     3    16    17    1
     4    17    18    1
     5    18    19    1
     6    19    20    1
     7    20    21    1
     8    21    22    1
     9    22    23    1
    10    21    24    1
    11    24    25    1
    12    15     1    1
    13     1     2    2
    14     2     3    1
    15     3     4    2
    16     4     5    1
    17     5     6    1
    18     6     7    2
    19     7     8    1
    20     8     9    2
    21     7    10    1
    22    10    11    1
    23    11    12    1
    24    12    13    1
    25    23    18    1
    26     9     1    1
    27    25    18    1
    28     9     4    1
    29    13     6    1
@<TRIPOS>MOLECULE
*****
 25 29 0 0 0
SMALL
GASTEIGER

@<TRIPOS>ATOM
      1 C          62.5120   89.7271   11.1954 C.2     1  UNL1        0.0959
      2 C          62.3695   90.2996    9.8163 C.2     1  UNL1        0.1049
      3 N          63.2851   91.4829    9.7088 N.2     1  UNL1       -0.2475
      4 C          63.9934   91.6417   11.0214 C.2     1  UNL1        0.0670
      5 C          65.0118   92.6342   11.4987 C.3     1  UNL1        0.1127
      6 C          65.5524   92.5416   12.8949 C.2     1  UNL1        0.1558
      7 C          65.0746   91.4565   13.8137 C.2     1  UNL1        0.1686
      8 C          64.0562   90.4639   13.3363 C.2     1  UNL1        0.0411
      9 C          63.5157   90.5566   11.9402 C.2     1  UNL1        0.0249
     10 O          65.6151   91.3638   15.2098 O.2     1  UNL1       -0.4687
     11 C          66.6335   92.3563   15.6871 C.3     1  UNL1        0.2526
     12 C          67.1112   93.4415   14.7683 C.3     1  UNL1        0.2521
     13 O          66.5707   93.5341   13.3722 O.2     1  UNL1       -0.4723
     14 O          60.3094   88.6229   12.0195 O.2     1  UNL1       -0.2448
     15 C          61.7795   88.5345   11.7350 C.2     1  UNL1        0.3428
     16 O          62.5171   87.2535   11.9900 O.3     1  UNL1       -0.4454
     17 C          61.9505   85.9523   11.5044 C.3     1  UNL1        0.2087
     18 C          62.8251   84.7362   11.4259 C.3     1  UNL1        0.0445
     19 C          63.1971   83.9978   12.6775 C.3     1  UNL1        0.0210
     20 C          64.0717   82.7817   12.5990 C.3     1  UNL1        0.0722
     21 N          64.5742   82.3040   11.2688 N.3     1  UNL1       -0.2727
     22 C          64.2022   83.0423   10.0173 C.3     1  UNL1        0.0722
     23 C          63.3276   84.2584   10.0958 C.3     1  UNL1        0.0210
     24 C          64.0976   82.9753   11.2618 C.3     1  UNL1        0.0722
     25 C          63.3068   84.0749   11.3327 C.3     1  UNL1        0.0210
@<TRIPOS>BOND
     1    14    15    2
     2    15    16    1
     3    16    17    1
     4    17    18    1
     5    18    19    1
     6    19    20    1
     7    20    21    1
     8    21    22    1
     9    22    23    1
    10    21    24    1
    11    24    25    1
    12    15     1    1
    13     1     2    2
    14     2     3    1
    15     3     4    2
    16     4     5    1
    17     5     6    1
    18     6     7    2
    19     7     8    1
    20     8     9    2
    21     7    10    1
    22    10    11    1
    23    11    12    1
    24    12    13    1
    25    23    18    1
    26     9     1    1
    27    25    18    1
    28     9     4    1
    29    13     6    1
@<TRIPOS>MOLECULE
*****
 25 29 0 0 0
SMALL
GASTEIGER

@<TRIPOS>ATOM
      1 C          63.4992   88.3740   12.9404 C.2     1  UNL1        0.0959
      2 C          63.9418   89.7890   13.1686 C.2     1  UNL1        0.1049
      3 N          63.3075   90.6485   12.1157 N.2     1  UNL1       -0.2475
      4 C          62.4729   89.7649   11.2367 C.2     1  UNL1        0.0670
      5 C          61.6203   90.0587   10.0380 C.3     1  UNL1        0.1127
      6 C          60.8862   88.9467    9.3490 C.2     1  UNL1        0.1558
      7 C          61.0047   87.5409    9.8588 C.2     1  UNL1        0.1686
      8 C          61.8573   87.2472   11.0575 C.2     1  UNL1        0.0411
      9 C          62.5914   88.3591   11.7464 C.2     1  UNL1        0.0249
     10 O          60.2707   86.4290    9.1698 O.2     1  UNL1       -0.4687
     11 C          59.4181   86.7228    7.9712 C.3     1  UNL1        0.2526
     12 C          59.2996   88.1285    7.4615 C.3     1  UNL1        0.2521
     13 O          60.0336   89.2405    8.1504 O.2     1  UNL1       -0.4723
     14 O          64.8993   87.3336   14.8658 O.2     1  UNL1       -0.2448
     15 C          63.8950   87.1830   13.7619 C.2     1  UNL1        0.3428
     16 O          63.2864   85.8414   13.4795 O.3     1  UNL1       -0.4454
     17 C          64.1391   84.6079   13.5181 C.3     1  UNL1        0.2087
     18 C          63.7892   83.4273   12.6616 C.3     1  UNL1        0.0445
     19 C          62.9722   82.3047   13.2292 C.3     1  UNL1        0.0210
     20 C          62.6224   81.1240   12.3726 C.3     1  UNL1        0.0722
     21 N          63.0896   81.0660   10.9484 N.3     1  UNL1       -0.2727
     22 C          63.9066   82.1887   10.3808 C.3     1  UNL1        0.0722
     23 C          64.2564   83.3693   11.2374 C.3     1  UNL1        0.0210
     24 C          63.3061   81.7335   11.3791 C.3     1  UNL1        0.0722
     25 C          63.6225   82.8011   12.1535 C.3     1  UNL1        0.0210
@<TRIPOS>BOND
     1    14    15    2
     2    15    16    1
     3    16    17    1
     4    17    18    1
     5    18    19    1
     6    19    20    1
     7    20    21    1
     8    21    22    1
     9    22    23    1
    10    21    24    1
    11    24    25    1
    12    15     1    1
    13     1     2    2
    14     2     3    1
    15     3     4    2
    16     4     5    1
    17     5     6    1
    18     6     7    2
    19     7     8    1
    20     8     9    2
    21     7    10    1
    22    10    11    1
    23    11    12    1
    24    12    13    1
    25    23    18    1
    26     9     1    1
    27    25    18    1
    28     9     4    1
    29    13     6    1
@<TRIPOS>MOLECULE
*****
 25 29 0 0 0
SMALL
GASTEIGER

@<TRIPOS>ATOM
      1 C          63.9815   89.9380   13.5448 C.2     1  UNL1        0.0959
      2 C          63.3553   90.4472   12.2804 C.2     1  UNL1        0.1049
      3 N          62.8361   89.2678   11.5127 N.2     1  UNL1       -0.2475
      4 C          63.1414   88.0297   12.3026 C.2     1  UNL1        0.0670
      5 C          62.8662   86.5786   12.0405 C.3     1  UNL1        0.1127
      6 C          63.2989   85.5417   13.0344 C.2     1  UNL1        0.1558
      7 C          64.0069   85.9560   14.2903 C.2     1  UNL1        0.1686
      8 C          64.2820   87.4071   14.5523 C.2     1  UNL1        0.0411
      9 C          63.8493   88.4439   13.5585 C.2     1  UNL1        0.0249
     10 O          64.4396   84.9191   15.2841 O.2     1  UNL1       -0.4687
     11 C          64.1644   83.4681   15.0220 C.3     1  UNL1        0.2526
     12 C          63.4565   83.0539   13.7661 C.3     1  UNL1        0.2521
     13 O          63.0238   84.0907   12.7723 O.2     1  UNL1       -0.4723
     14 O          63.7783   91.4849   15.6222 O.2     1  UNL1       -0.2448
     15 C          64.6267   90.7758   14.6086 C.2     1  UNL1        0.3428
     16 O          66.1203   90.9045   14.6590 O.3     1  UNL1       -0.4454
     17 C          66.7820   92.1591   14.1708 C.3     1  UNL1        0.2087
     18 C          66.8273   92.4604   12.7021 C.3     1  UNL1        0.0445
     19 C          67.9364   91.9076   11.8569 C.3     1  UNL1        0.0210
     20 C          67.9816   92.2089   10.3882 C.3     1  UNL1        0.0722
     21 N          66.9178   93.0631    9.7647 N.3     1  UNL1       -0.2727
     22 C          65.8087   93.6159   10.6099 C.3     1  UNL1        0.0722
     23 C          65.7635   93.3145   12.0786 C.3     1  UNL1        0.0210
     24 C          66.8509   92.9253   10.5736 C.3     1  UNL1        0.0722
     25 C          66.8099   92.6528   11.9017 C.3     1  UNL1        0.0210
@<TRIPOS>BOND
     1    14    15    2
     2    15    16    1
     3    16    17    1
     4    17    18    1
     5    18    19    1
     6    19    20    1
     7    20    21    1
     8    21    22    1
     9    22    23    1
    10    21    24    1
    11    24    25    1
    12    15     1    1
    13     1     2    2
    14     2     3    1
    15     3     4    2
    16     4     5    1
    17     5     6    1
    18     6     7    2
    19     7     8    1
    20     8     9    2
    21     7    10    1
    22    10    11    1
    23    11    12    1
    24    12    13    1
    25    23    18    1
    26     9     1    1
    27    25    18    1
    28     9     4    1
    29    13     6    1
@<TRIPOS>MOLECULE
*****
 25 29 0 0 0
SMALL
GASTEIGER

@<TRIPOS>ATOM
      1 C          63.2178   82.9368   11.9955 C.2     1  UNL1        0.0959
      2 C          62.6455   81.5875   12.3143 C.2     1  UNL1        0.1049
      3 N          62.1866   81.6043   13.7423 N.2     1  UNL1       -0.2475
      4 C          62.4754   82.9640   14.3061 C.2     1  UNL1        0.0670
      5 C          62.2403   83.5586   15.6630 C.3     1  UNL1        0.1127
      6 C          62.6426   84.9768   15.9403 C.2     1  UNL1        0.1558
      7 C          63.2799   85.8004   14.8607 C.2     1  UNL1        0.1686
      8 C          63.5149   85.2058   13.5037 C.2     1  UNL1        0.0411
      9 C          63.1126   83.7876   13.2265 C.2     1  UNL1        0.0249
     10 O          63.6821   87.2186   15.1379 O.2     1  UNL1       -0.4687
     11 C          63.4471   87.8132   16.4948 C.3     1  UNL1        0.2526
     12 C          62.8098   86.9896   17.5744 C.3     1  UNL1        0.2521
     13 O          62.4075   85.5714   17.2972 O.2     1  UNL1       -0.4723
     14 O          64.8838   82.5512   10.0396 O.2     1  UNL1       -0.2448
     15 C          63.7940   83.3610   10.6772 C.2     1  UNL1        0.3428
     16 O          63.2804   84.5950    9.9964 O.3     1  UNL1       -0.4454
     17 C          61.8983   85.0960   10.2944 C.3     1  UNL1        0.2087
     18 C          61.5064   86.4910    9.9067 C.3     1  UNL1        0.0445
     19 C          60.4101   86.7116    8.9070 C.3     1  UNL1        0.0210
     20 C          60.0183   88.1067    8.5193 C.3     1  UNL1        0.0722
     21 N          60.7227   89.2811    9.1313 N.3     1  UNL1       -0.2727
     22 C          61.8189   89.0604   10.1310 C.3     1  UNL1        0.0722
     23 C          62.2108   87.6654   10.5187 C.3     1  UNL1        0.0210
     24 C          60.9723   88.5353    9.3750 C.3     1  UNL1        0.0722
     25 C          61.3267   87.2739    9.7256 C.3     1  UNL1        0.0210
@<TRIPOS>BOND
     1    14    15    2
     2    15    16    1
     3    16    17    1
     4    17    18    1
     5    18    19    1
     6    19    20    1
     7    20    21    1
     8    21    22    1
     9    22    23    1
    10    21    24    1
    11    24    25    1
    12    15     1    1
    13     1     2    2
    14     2     3    1
    15     3     4    2
    16     4     5    1
    17     5     6    1
    18     6     7    2
    19     7     8    1
    20     8     9    2
    21     7    10    1
    22    10    11    1
    23    11    12    1
    24    12    13    1
    25    23    18    1
    26     9     1    1
    27    25    18    1
    28     9     4    1
    29    13     6    1
@<TRIPOS>MOLECULE
*****
 25 29 0 0 0
SMALL
GASTEIGER

@<TRIPOS>ATOM
      1 C          62.1935   86.4863    9.3607 C.2     1  UNL1        0.0959
      2 C          62.6715   85.8041    8.1132 C.2     1  UNL1        0.1049
      3 N          63.2779   84.4899    8.5070 N.2     1  UNL1       -0.2475
      4 C          63.1748   84.3599    9.9978 C.2     1  UNL1        0.0670
      5 C          63.6047   83.2774   10.9430 C.3     1  UNL1        0.1127
      6 C          63.3643   83.4287   12.4159 C.2     1  UNL1        0.1558
      7 C          62.6940   84.6626   12.9435 C.2     1  UNL1        0.1686
      8 C          62.2642   85.7451   11.9983 C.2     1  UNL1        0.0411
      9 C          62.5046   85.5938   10.5254 C.2     1  UNL1        0.0249
     10 O          62.4536   84.8140   14.4164 O.2     1  UNL1       -0.4687
     11 C          62.8834   83.7315   15.3615 C.3     1  UNL1        0.2526
     12 C          63.5537   82.4976   14.8339 C.3     1  UNL1        0.2521
     13 O          63.7941   82.3463   13.3611 O.2     1  UNL1       -0.4723
     14 O          60.1155   87.9868    8.9363 O.2     1  UNL1       -0.2448
     15 C          61.5223   87.8259    9.4311 C.2     1  UNL1        0.3428
     16 O          62.2579   89.0046    9.9964 O.3     1  UNL1       -0.4454
     17 C          61.9354   89.4991   11.3754 C.3     1  UNL1        0.2087
     18 C          63.0410   89.9054   12.3041 C.3     1  UNL1        0.0445
     19 C          63.7180   91.2324   12.1291 C.3     1  UNL1        0.0210
     20 C          64.8236   91.6385   13.0579 C.3     1  UNL1        0.0722
     21 N          65.2522   90.7177   14.1617 N.3     1  UNL1       -0.2727
     22 C          64.5751   89.3907   14.3367 C.3     1  UNL1        0.0722
     23 C          63.4695   88.9845   13.4079 C.3     1  UNL1        0.0210
     24 C          64.6416   90.4516   13.6777 C.3     1  UNL1        0.0722
     25 C          63.6419   90.0842   12.8379 C.3     1  UNL1        0.0210
@<TRIPOS>BOND
     1    14    15    2
     2    15    16    1
     3    16    17    1
     4    17    18    1
     5    18    19    1
     6    19    20    1
     7    20    21    1
     8    21    22    1
     9    22    23    1
    10    21    24    1
    11    24    25    1
    12    15     1    1
    13     1     2    2
    14     2     3    1
    15     3     4    2
    16     4     5    1
    17     5     6    1
    18     6     7    2
    19     7     8    1
    20     8     9    2
    21     7    10    1
    22    10    11    1
    23    11    12    1
    24    12    13    1
    25    23    18    1
    26     9     1    1
    27    25    18    1
    28     9     4    1
    29    13     6    1
@<TRIPOS>MOLECULE
*****
 25 29 0 0 0
SMALL
GASTEIGER

@<TRIPOS>ATOM
      1 C          61.8804   87.5245   10.7803 C.2     1  UNL1        0.0959
      2 C          61.1843   88.1468    9.6063 C.2     1  UNL1        0.1049
      3 N          61.5256   89.6073    9.5860 N.2     1  UNL1       -0.2475
      4 C          62.4326   89.8877   10.7473 C.2     1  UNL1        0.0670
      5 C          63.0871   91.1488   11.2281 C.3     1  UNL1        0.1127
      6 C          63.9611   91.1226   12.4470 C.2     1  UNL1        0.1558
      7 C          64.1804   89.8353   13.1851 C.2     1  UNL1        0.1686
      8 C          63.5258   88.5742   12.7043 C.2     1  UNL1        0.0411
      9 C          62.6519   88.6004   11.4855 C.2     1  UNL1        0.0249
     10 O          65.0542   89.8092   14.4040 O.2     1  UNL1       -0.4687
     11 C          65.7088   91.0703   14.8847 C.3     1  UNL1        0.2526
     12 C          65.4895   92.3575   14.1466 C.3     1  UNL1        0.2521
     13 O          64.6156   92.3837   12.9277 O.2     1  UNL1       -0.4723
     14 O          61.5698   85.0255   10.1410 O.2     1  UNL1       -0.2448
     15 C          61.8163   86.0799   11.1790 C.2     1  UNL1        0.3428
     16 O          61.9988   85.6897   12.6158 O.3     1  UNL1       -0.4454
     17 C          63.0923   84.7381   13.0017 C.3     1  UNL1        0.2087
     18 C          62.8435   83.2592   12.9753 C.3     1  UNL1        0.0445
     19 C          62.2650   82.5744   14.1779 C.3     1  UNL1        0.0210
     20 C          62.0162   81.0954   14.1515 C.3     1  UNL1        0.0722
     21 N          62.3460   80.3012   12.9225 N.3     1  UNL1       -0.2727
     22 C          62.9245   80.9860   11.7198 C.3     1  UNL1        0.0722
     23 C          63.1733   82.4650   11.7463 C.3     1  UNL1        0.0210
     24 C          62.4999   81.1094   12.8898 C.3     1  UNL1        0.0722
     25 C          62.7249   82.4467   12.9136 C.3     1  UNL1        0.0210
@<TRIPOS>BOND
     1    14    15    2
     2    15    16    1
     3    16    17    1
     4    17    18    1
     5    18    19    1
     6    19    20    1
     7    20    21    1
     8    21    22    1
     9    22    23    1
    10    21    24    1
    11    24    25    1
    12    15     1    1
    13     1     2    2
    14     2     3    1
    15     3     4    2
    16     4     5    1
    17     5     6    1
    18     6     7    2
    19     7     8    1
    20     8     9    2
    21     7    10    1
    22    10    11    1
    23    11    12    1
    24    12    13    1
    25    23    18    1
    26     9     1    1
    27    25    18    1
    28     9     4    1
    29    13     6    1
@<TRIPOS>MOLECULE
*****
 25 29 0 0 0
SMALL
GASTEIGER

@<TRIPOS>ATOM
      1 C          63.4836   84.6245   14.5577 C.2     1  UNL1        0.0959
      2 C          64.3456   83.4311   14.8451 C.2     1  UNL1        0.1049
      3 N          64.6765   82.7729   13.5385 N.2     1  UNL1       -0.2475
      4 C          64.0189   83.5595   12.4436 C.2     1  UNL1        0.0670
      5 C          63.9962   83.3816   10.9544 C.3     1  UNL1        0.1127
      6 C          63.2362   84.3481   10.0950 C.2     1  UNL1        0.1558
      7 C          62.4990   85.4924   10.7250 C.2     1  UNL1        0.1686
      8 C          62.5217   85.6703   12.2143 C.2     1  UNL1        0.0411
      9 C          63.2816   84.7039   13.0735 C.2     1  UNL1        0.0249
     10 O          61.7390   86.4589    9.8657 O.2     1  UNL1       -0.4687
     11 C          61.7163   86.2810    8.3765 C.3     1  UNL1        0.2526
     12 C          62.4536   85.1366    7.7465 C.3     1  UNL1        0.2521
     13 O          63.2135   84.1701    8.6058 O.2     1  UNL1       -0.4723
     14 O          61.7345   85.1706   16.3996 O.2     1  UNL1       -0.2448
     15 C          62.9220   85.5722   15.5758 C.2     1  UNL1        0.3428
     16 O          63.5479   86.9214   15.7702 O.3     1  UNL1       -0.4454
     17 C          64.5183   87.4511   14.7564 C.3     1  UNL1        0.2087
     18 C          64.3246   88.8211   14.1771 C.3     1  UNL1        0.0445
     19 C          63.5083   89.0001   12.9315 C.3     1  UNL1        0.0210
     20 C          63.3146   90.3701   12.3522 C.3     1  UNL1        0.0722
     21 N          63.9373   91.5611   13.0185 N.3     1  UNL1       -0.2727
     22 C          64.7536   91.3820   14.2641 C.3     1  UNL1        0.0722
     23 C          64.9473   90.0120   14.8434 C.3     1  UNL1        0.0210
     24 C          64.0713   90.8301   13.3730 C.3     1  UNL1        0.0722
     25 C          64.2465   89.5914   13.8968 C.3     1  UNL1        0.0210
@<TRIPOS>BOND
     1    14    15    2
     2    15    16    1
     3    16    17    1
     4    17    18    1
     5    18    19    1
     6    19    20    1
     7    20    21    1
     8    21    22    1
     9    22    23    1
    10    21    24    1
    11    24    25    1
    12    15     1    1
    13     1     2    2
    14     2     3    1
    15     3     4    2
    16     4     5    1
    17     5     6    1
    18     6     7    2
    19     7     8    1
    20     8     9    2
    21     7    10    1
    22    10    11    1
    23    11    12    1
    24    12    13    1
    25    23    18    1
    26     9     1    1
    27    25    18    1
    28     9     4    1
    29    13     6    1
