@<TRIPOS>MOLECULE
*****
 25 27 0 0 0
SMALL
GASTEIGER

@<TRIPOS>ATOM
      1 C          64.1113   88.4351   14.1450 C.ar    1  UNL1       -0.0006
      2 C          64.6019   87.2521   14.9258 C.ar    1  UNL1       -0.0000
      3 C          64.3817   85.8639   14.4019 C.ar    1  UNL1        0.0000
      4 C          63.6708   85.6588   13.0971 C.ar    1  UNL1        0.0001
      5 C          63.1801   86.8418   12.3162 C.ar    1  UNL1        0.0000
      6 C          63.4004   88.2299   12.8401 C.ar    1  UNL1       -0.0000
      7 C          63.4506   84.2706   12.5732 C.ar    1  UNL1        0.0024
      8 C          64.0847   83.8471   11.2815 C.ar    1  UNL1        0.0033
      9 C          63.8644   82.4588   10.7576 C.ar    1  UNL1        0.0390
     10 C          63.0101   81.4943   11.5254 C.ar    1  UNL1        0.1610
     11 O          62.7898   80.1061   11.0015 O.3     1  UNL1       -0.5034
     12 C          62.3759   81.9178   12.8171 C.ar    1  UNL1        0.1735
     13 F          61.5215   80.9532   13.5849 F       1  UNL1       -0.2010
     14 C          62.5961   83.3060   13.3410 C.ar    1  UNL1        0.0328
     15 H          63.1860   79.8416   10.1947 H       1  UNL1        0.2923
     16 C          62.8828   89.2668   16.7524 C.3     1  UNL1        0.0264
     17 C          63.7173   90.2391   15.9726 C.2     1  UNL1       -0.0436
     18 C          63.9375   91.6273   16.4965 C.3     1  UNL1        0.0264
     19 C          64.3315   89.8233   14.6689 C.2     1  UNL1       -0.0078
     20 C          65.1661   90.7956   13.8890 C.ar    1  UNL1        0.0025
     21 C          64.5788   91.5089   12.7073 C.ar    1  UNL1        0.0207
     22 C          65.4134   92.4812   11.9276 C.ar    1  UNL1        0.0989
     23 N          66.8351   92.7403   12.3294 N.ar    1  UNL1       -0.2423
     24 C          67.4224   92.0270   13.5111 C.ar    1  UNL1        0.0989
     25 C          66.5878   91.0547   14.2909 C.ar    1  UNL1        0.0207
@<TRIPOS>BOND
     1    16    17    1
     2    17    18    1
     3    17    19    2
     4    19    20    1
     5    20    21   ar
     6    21    22   ar
     7    22    23   ar
     8    23    24   ar
     9    24    25   ar
    10    19     1    1
    11     1     2   ar
    12     2     3   ar
    13     3     4   ar
    14     4     7    1
    15     7     8   ar
    16     8     9   ar
    17     9    10   ar
    18    10    11    1
    19    10    12   ar
    20    12    13    1
    21    12    14   ar
    22     4     5   ar
    23     5     6   ar
    24    25    20   ar
    25     6     1   ar
    26    14     7   ar
    27    11    15    1
@<TRIPOS>MOLECULE
*****
 25 27 0 0 0
SMALL
GASTEIGER

@<TRIPOS>ATOM
      1 C          64.1005   88.4266   14.1400 C.ar    1  UNL1       -0.0006
      2 C          63.3882   88.2264   12.8352 C.ar    1  UNL1       -0.0000
      3 C          63.1696   86.8403   12.3050 C.ar    1  UNL1        0.0000
      4 C          63.6632   85.6545   13.0796 C.ar    1  UNL1        0.0001
      5 C          64.3755   85.8547   14.3845 C.ar    1  UNL1        0.0000
      6 C          64.5941   87.2407   14.9147 C.ar    1  UNL1       -0.0000
      7 C          63.4446   84.2685   12.5494 C.ar    1  UNL1        0.0024
      8 C          64.0607   83.8588   11.2446 C.ar    1  UNL1        0.0033
      9 C          63.8420   82.4727   10.7144 C.ar    1  UNL1        0.0390
     10 C          63.0074   81.4964   11.4890 C.ar    1  UNL1        0.1610
     11 O          62.7888   80.1104   10.9588 O.3     1  UNL1       -0.5034
     12 C          62.3913   81.9061   12.7939 C.ar    1  UNL1        0.1735
     13 F          61.5567   80.9298   13.5685 F       1  UNL1       -0.2010
     14 C          62.6099   83.2921   13.3241 C.ar    1  UNL1        0.0328
     15 H          63.1736   79.8545   10.1437 H       1  UNL1        0.2923
     16 C          62.8692   89.2456   16.7503 C.3     1  UNL1        0.0264
     17 C          63.7035   90.2221   15.9754 C.2     1  UNL1       -0.0436
     18 C          63.9221   91.6082   16.5056 C.3     1  UNL1        0.0264
     19 C          64.3191   89.8126   14.6703 C.2     1  UNL1       -0.0078
     20 C          65.1533   90.7891   13.8953 C.ar    1  UNL1        0.0025
     21 C          64.5690   91.5009   12.7114 C.ar    1  UNL1        0.0207
     22 C          65.4032   92.4774   11.9366 C.ar    1  UNL1        0.0989
     23 N          66.8219   92.7421   12.3457 N.ar    1  UNL1       -0.2423
     24 C          67.4062   92.0304   13.5296 C.ar    1  UNL1        0.0989
     25 C          66.5720   91.0539   14.3045 C.ar    1  UNL1        0.0207
@<TRIPOS>BOND
     1    16    17    1
     2    17    18    1
     3    17    19    2
     4    19    20    1
     5    20    21   ar
     6    21    22   ar
     7    22    23   ar
     8    23    24   ar
     9    24    25   ar
    10    19     1    1
    11     1     2   ar
    12     2     3   ar
    13     3     4   ar
    14     4     7    1
    15     7     8   ar
    16     8     9   ar
    17     9    10   ar
    18    10    11    1
    19    10    12   ar
    20    12    13    1
    21    12    14   ar
    22     4     5   ar
    23     5     6   ar
    24    25    20   ar
    25     6     1   ar
    26    14     7   ar
    27    11    15    1
@<TRIPOS>MOLECULE
*****
 25 27 0 0 0
SMALL
GASTEIGER

@<TRIPOS>ATOM
      1 C          64.5844   90.1929   13.8960 C.ar    1  UNL1       -0.0006
      2 C          65.8580   90.8913   14.2703 C.ar    1  UNL1       -0.0000
      3 C          66.4003   91.9823   13.3951 C.ar    1  UNL1        0.0000
      4 C          65.6690   92.3747   12.1457 C.ar    1  UNL1        0.0001
      5 C          64.3953   91.6763   11.7714 C.ar    1  UNL1        0.0000
      6 C          63.8530   90.5854   12.6465 C.ar    1  UNL1       -0.0000
      7 C          66.2112   93.4656   11.2706 C.ar    1  UNL1        0.0024
      8 C          66.0936   94.8985   11.6983 C.ar    1  UNL1        0.0033
      9 C          66.6359   95.9894   10.8232 C.ar    1  UNL1        0.0390
     10 C          67.2959   95.6474    9.5203 C.ar    1  UNL1        0.1610
     11 O          67.8382   96.7383    8.6452 O.3     1  UNL1       -0.5034
     12 C          67.4136   94.2145    9.0926 C.ar    1  UNL1        0.1735
     13 F          68.0736   93.8724    7.7898 F       1  UNL1       -0.2010
     14 C          66.8713   93.1236    9.9677 C.ar    1  UNL1        0.0328
     15 H          67.7647   97.6333    8.9124 H       1  UNL1        0.2923
     16 C          63.5039   90.8498   16.6165 C.3     1  UNL1        0.0264
     17 C          63.5018   89.4305   16.1313 C.2     1  UNL1       -0.0436
     18 C          62.9595   88.3395   17.0064 C.3     1  UNL1        0.0264
     19 C          64.0421   89.1020   14.7711 C.2     1  UNL1       -0.0078
     20 C          64.0400   87.6826   14.2860 C.ar    1  UNL1        0.0025
     21 C          64.7984   86.6311   15.0403 C.ar    1  UNL1        0.0207
     22 C          64.7962   85.2117   14.5552 C.ar    1  UNL1        0.0989
     23 N          64.0358   84.8439   13.3157 N.ar    1  UNL1       -0.2423
     24 C          63.2774   85.8954   12.5613 C.ar    1  UNL1        0.0989
     25 C          63.2795   87.3148   13.0465 C.ar    1  UNL1        0.0207
@<TRIPOS>BOND
     1    16    17    1
     2    17    18    1
     3    17    19    2
     4    19    20    1
     5    20    21   ar
     6    21    22   ar
     7    22    23   ar
     8    23    24   ar
     9    24    25   ar
    10    19     1    1
    11     1     2   ar
    12     2     3   ar
    13     3     4   ar
    14     4     7    1
    15     7     8   ar
    16     8     9   ar
    17     9    10   ar
    18    10    11    1
    19    10    12   ar
    20    12    13    1
    21    12    14   ar
    22     4     5   ar
    23     5     6   ar
    24    25    20   ar
    25     6     1   ar
    26    14     7   ar
    27    11    15    1
@<TRIPOS>MOLECULE
*****
 25 27 0 0 0
SMALL
GASTEIGER

@<TRIPOS>ATOM
      1 C          62.8013   89.2421   11.4958 C.ar    1  UNL1       -0.0006
      2 C          63.2926   88.8452   12.8563 C.ar    1  UNL1       -0.0000
      3 C          64.2467   89.7340   13.5978 C.ar    1  UNL1        0.0000
      4 C          64.7094   91.0195   12.9789 C.ar    1  UNL1        0.0001
      5 C          64.2181   91.4164   11.6183 C.ar    1  UNL1        0.0000
      6 C          63.2640   90.5277   10.8768 C.ar    1  UNL1       -0.0000
      7 C          65.6635   91.9082   13.7204 C.ar    1  UNL1        0.0024
      8 C          65.9049   93.3107   13.2462 C.ar    1  UNL1        0.0033
      9 C          66.8590   94.1994   13.9879 C.ar    1  UNL1        0.0390
     10 C          67.5717   93.6856   15.2036 C.ar    1  UNL1        0.1610
     11 O          68.5257   94.5743   15.9452 O.3     1  UNL1       -0.5034
     12 C          67.3303   92.2831   15.6778 C.ar    1  UNL1        0.1735
     13 F          68.0429   91.7694   16.8936 F       1  UNL1       -0.2010
     14 C          66.3762   91.3945   14.9363 C.ar    1  UNL1        0.0328
     15 H          68.6765   95.4503   15.6489 H       1  UNL1        0.2923
     16 C          60.0639   90.2425   10.7844 C.3     1  UNL1        0.0264
     17 C          60.4785   88.8536   10.3985 C.2     1  UNL1       -0.0436
     18 C          59.5244   87.9648    9.6569 C.3     1  UNL1        0.0264
     19 C          61.8472   88.3534   10.7542 C.2     1  UNL1       -0.0078
     20 C          62.2618   86.9644   10.3683 C.ar    1  UNL1        0.0025
     21 C          62.3260   85.8848   11.4077 C.ar    1  UNL1        0.0207
     22 C          62.7405   84.4959   11.0217 C.ar    1  UNL1        0.0989
     23 N          63.0909   84.1865    9.5964 N.ar    1  UNL1       -0.2423
     24 C          63.0267   85.2661    8.5570 C.ar    1  UNL1        0.0989
     25 C          62.6121   86.6550    8.9430 C.ar    1  UNL1        0.0207
@<TRIPOS>BOND
     1    16    17    1
     2    17    18    1
     3    17    19    2
     4    19    20    1
     5    20    21   ar
     6    21    22   ar
     7    22    23   ar
     8    23    24   ar
     9    24    25   ar
    10    19     1    1
    11     1     2   ar
    12     2     3   ar
    13     3     4   ar
    14     4     7    1
    15     7     8   ar
    16     8     9   ar
    17     9    10   ar
    18    10    11    1
    19    10    12   ar
    20    12    13    1
    21    12    14   ar
    22     4     5   ar
    23     5     6   ar
    24    25    20   ar
    25     6     1   ar
    26    14     7   ar
    27    11    15    1
@<TRIPOS>MOLECULE
*****
 25 27 0 0 0
SMALL
GASTEIGER

@<TRIPOS>ATOM
      1 C          64.4253   91.5032   11.6414 C.ar    1  UNL1       -0.0006
      2 C          63.8625   91.8739   10.3013 C.ar    1  UNL1       -0.0000
      3 C          62.8179   91.0084    9.6611 C.ar    1  UNL1        0.0000
      4 C          62.3362   89.7723   10.3609 C.ar    1  UNL1        0.0001
      5 C          62.8990   89.4015   11.7010 C.ar    1  UNL1        0.0000
      6 C          63.9435   90.2670   12.3412 C.ar    1  UNL1       -0.0000
      7 C          61.2917   88.9068    9.7207 C.ar    1  UNL1        0.0024
      8 C          61.0847   87.5011   10.2014 C.ar    1  UNL1        0.0033
      9 C          60.0401   86.6357    9.5611 C.ar    1  UNL1        0.0390
     10 C          59.2027   87.1759    8.4401 C.ar    1  UNL1        0.1610
     11 O          58.1582   86.3105    7.7998 O.3     1  UNL1       -0.5034
     12 C          59.4097   88.5816    7.9593 C.ar    1  UNL1        0.1735
     13 F          58.5723   89.1218    6.8383 F       1  UNL1       -0.2010
     14 C          60.4542   89.4470    8.5995 C.ar    1  UNL1        0.0328
     15 H          58.0288   85.4324    8.1002 H       1  UNL1        0.2923
     16 C          64.8851   91.3576   14.6024 C.3     1  UNL1        0.0264
     17 C          65.6997   92.2959   13.7621 C.2     1  UNL1       -0.0436
     18 C          66.7443   93.1614   14.4024 C.3     1  UNL1        0.0264
     19 C          65.4698   92.3687   12.2816 C.2     1  UNL1       -0.0078
     20 C          66.2845   93.3070   11.4414 C.ar    1  UNL1        0.0025
     21 C          66.0343   94.7844   11.5097 C.ar    1  UNL1        0.0207
     22 C          66.8489   95.7226   10.6695 C.ar    1  UNL1        0.0989
     23 N          67.9138   95.1835    9.7609 N.ar    1  UNL1       -0.2423
     24 C          68.1640   93.7061    9.6926 C.ar    1  UNL1        0.0989
     25 C          67.3493   92.7679   10.5328 C.ar    1  UNL1        0.0207
@<TRIPOS>BOND
     1    16    17    1
     2    17    18    1
     3    17    19    2
     4    19    20    1
     5    20    21   ar
     6    21    22   ar
     7    22    23   ar
     8    23    24   ar
     9    24    25   ar
    10    19     1    1
    11     1     2   ar
    12     2     3   ar
    13     3     4   ar
    14     4     7    1
    15     7     8   ar
    16     8     9   ar
    17     9    10   ar
    18    10    11    1
    19    10    12   ar
    20    12    13    1
    21    12    14   ar
    22     4     5   ar
    23     5     6   ar
    24    25    20   ar
    25     6     1   ar
    26    14     7   ar
    27    11    15    1
@<TRIPOS>MOLECULE
*****
 25 27 0 0 0
SMALL
GASTEIGER

@<TRIPOS>ATOM
      1 C          64.4499   89.4358   14.1723 C.ar    1  UNL1       -0.0006
      2 C          65.6235   90.2398   14.6480 C.ar    1  UNL1       -0.0000
      3 C          66.1156   91.4010   13.8359 C.ar    1  UNL1        0.0000
      4 C          65.4342   91.7582   12.5482 C.ar    1  UNL1        0.0001
      5 C          64.2606   90.9542   12.0726 C.ar    1  UNL1        0.0000
      6 C          63.7684   89.7930   12.8846 C.ar    1  UNL1       -0.0000
      7 C          65.9263   92.9194   11.7362 C.ar    1  UNL1        0.0024
      8 C          66.4628   92.6940   10.3537 C.ar    1  UNL1        0.0033
      9 C          66.9549   93.8553    9.5417 C.ar    1  UNL1        0.0390
     10 C          66.9107   95.2418   10.1122 C.ar    1  UNL1        0.1610
     11 O          67.4028   96.4030    9.3002 O.3     1  UNL1       -0.5034
     12 C          66.3742   95.4671   11.4948 C.ar    1  UNL1        0.1735
     13 F          66.3299   96.8537   12.0653 F       1  UNL1       -0.2010
     14 C          65.8821   94.3060   12.3068 C.ar    1  UNL1        0.0328
     15 H          67.7379   96.2622    8.4366 H       1  UNL1        0.2923
     16 C          63.1894   89.9073   16.8536 C.3     1  UNL1        0.0264
     17 C          63.3275   88.5104   16.3250 C.2     1  UNL1       -0.0436
     18 C          62.8353   87.3491   17.1370 C.3     1  UNL1        0.0264
     19 C          63.9577   88.2746   14.9843 C.2     1  UNL1       -0.0078
     20 C          64.0958   86.8776   14.4557 C.ar    1  UNL1        0.0025
     21 C          63.2331   86.4174   13.3182 C.ar    1  UNL1        0.0207
     22 C          63.3712   85.0205   12.7897 C.ar    1  UNL1        0.0989
     23 N          64.3719   84.0837   13.3987 N.ar    1  UNL1       -0.2423
     24 C          65.2346   84.5438   14.5362 C.ar    1  UNL1        0.0989
     25 C          65.0965   85.9408   15.0647 C.ar    1  UNL1        0.0207
@<TRIPOS>BOND
     1    16    17    1
     2    17    18    1
     3    17    19    2
     4    19    20    1
     5    20    21   ar
     6    21    22   ar
     7    22    23   ar
     8    23    24   ar
     9    24    25   ar
    10    19     1    1
    11     1     2   ar
    12     2     3   ar
    13     3     4   ar
    14     4     7    1
    15     7     8   ar
    16     8     9   ar
    17     9    10   ar
    18    10    11    1
    19    10    12   ar
    20    12    13    1
    21    12    14   ar
    22     4     5   ar
    23     5     6   ar
    24    25    20   ar
    25     6     1   ar
    26    14     7   ar
    27    11    15    1
@<TRIPOS>MOLECULE
*****
 25 27 0 0 0
SMALL
GASTEIGER

@<TRIPOS>ATOM
      1 C          63.4322   88.2717   12.6610 C.ar    1  UNL1       -0.0006
      2 C          64.0720   87.4944   13.7729 C.ar    1  UNL1       -0.0000
      3 C          63.8694   86.0109   13.8642 C.ar    1  UNL1        0.0000
      4 C          63.0269   85.3048   12.8436 C.ar    1  UNL1        0.0001
      5 C          62.3871   86.0822   11.7317 C.ar    1  UNL1        0.0000
      6 C          62.5897   87.5656   11.6404 C.ar    1  UNL1       -0.0000
      7 C          62.8243   83.8214   12.9349 C.ar    1  UNL1        0.0024
      8 C          62.4415   83.1958   14.2433 C.ar    1  UNL1        0.0033
      9 C          62.2389   81.7123   14.3346 C.ar    1  UNL1        0.0390
     10 C          62.4191   80.8545   13.1174 C.ar    1  UNL1        0.1610
     11 O          62.2165   79.3711   13.2087 O.3     1  UNL1       -0.5034
     12 C          62.8020   81.4800   11.8089 C.ar    1  UNL1        0.1735
     13 F          62.9822   80.6222   10.5918 F       1  UNL1       -0.2010
     14 C          63.0046   82.9635   11.7176 C.ar    1  UNL1        0.0328
     15 H          61.9774   78.9803   14.0261 H       1  UNL1        0.2923
     16 C          62.7818   89.7207   10.1159 C.3     1  UNL1        0.0264
     17 C          63.3096   90.4796   11.2972 C.2     1  UNL1       -0.0436
     18 C          63.5122   91.9631   11.2059 C.3     1  UNL1        0.0264
     19 C          63.6348   89.7551   12.5697 C.2     1  UNL1       -0.0078
     20 C          64.1625   90.5142   13.7510 C.ar    1  UNL1        0.0025
     21 C          65.4669   91.2478   13.6493 C.ar    1  UNL1        0.0207
     22 C          65.9946   92.0068   14.8305 C.ar    1  UNL1        0.0989
     23 N          65.2180   92.0321   16.1136 N.ar    1  UNL1       -0.2423
     24 C          63.9136   91.2985   16.2153 C.ar    1  UNL1        0.0989
     25 C          63.3859   90.5395   15.0341 C.ar    1  UNL1        0.0207
@<TRIPOS>BOND
     1    16    17    1
     2    17    18    1
     3    17    19    2
     4    19    20    1
     5    20    21   ar
     6    21    22   ar
     7    22    23   ar
     8    23    24   ar
     9    24    25   ar
    10    19     1    1
    11     1     2   ar
    12     2     3   ar
    13     3     4   ar
    14     4     7    1
    15     7     8   ar
    16     8     9   ar
    17     9    10   ar
    18    10    11    1
    19    10    12   ar
    20    12    13    1
    21    12    14   ar
    22     4     5   ar
    23     5     6   ar
    24    25    20   ar
    25     6     1   ar
    26    14     7   ar
    27    11    15    1
@<TRIPOS>MOLECULE
*****
 25 27 0 0 0
SMALL
GASTEIGER

@<TRIPOS>ATOM
      1 C          63.4231   88.2877   12.5856 C.ar    1  UNL1       -0.0006
      2 C          62.5953   87.6212   11.5270 C.ar    1  UNL1       -0.0000
      3 C          62.4265   86.1307   11.5346 C.ar    1  UNL1        0.0000
      4 C          63.0853   85.3068   12.6008 C.ar    1  UNL1        0.0001
      5 C          63.9130   85.9732   13.6595 C.ar    1  UNL1        0.0000
      6 C          64.0819   87.4636   13.6519 C.ar    1  UNL1       -0.0000
      7 C          62.9164   83.8163   12.6084 C.ar    1  UNL1        0.0024
      8 C          63.5023   82.9895   11.5025 C.ar    1  UNL1        0.0033
      9 C          63.3334   81.4990   11.5102 C.ar    1  UNL1        0.0390
     10 C          62.5786   80.8354   12.6237 C.ar    1  UNL1        0.1610
     11 O          62.4097   79.3450   12.6313 O.3     1  UNL1       -0.5034
     12 C          61.9927   81.6623   13.7296 C.ar    1  UNL1        0.1735
     13 F          61.2380   80.9987   14.8431 F       1  UNL1       -0.2010
     14 C          62.1616   83.1527   13.7220 C.ar    1  UNL1        0.0328
     15 H          62.7757   78.8285   11.9404 H       1  UNL1        0.2923
     16 C          62.8196   89.8530   10.0986 C.3     1  UNL1        0.0264
     17 C          63.2902   90.5608   11.3345 C.2     1  UNL1       -0.0436
     18 C          63.4591   92.0512   11.3269 C.3     1  UNL1        0.0264
     19 C          63.5920   89.7781   12.5780 C.2     1  UNL1       -0.0078
     20 C          64.0626   90.4859   13.8140 C.ar    1  UNL1        0.0025
     21 C          65.3463   91.2615   13.7912 C.ar    1  UNL1        0.0207
     22 C          65.8169   91.9693   15.0271 C.ar    1  UNL1        0.0989
     23 N          65.0038   91.9014   16.2858 N.ar    1  UNL1       -0.2423
     24 C          63.7202   91.1258   16.3086 C.ar    1  UNL1        0.0989
     25 C          63.2496   90.4180   15.0727 C.ar    1  UNL1        0.0207
@<TRIPOS>BOND
     1    16    17    1
     2    17    18    1
     3    17    19    2
     4    19    20    1
     5    20    21   ar
     6    21    22   ar
     7    22    23   ar
     8    23    24   ar
     9    24    25   ar
    10    19     1    1
    11     1     2   ar
    12     2     3   ar
    13     3     4   ar
    14     4     7    1
    15     7     8   ar
    16     8     9   ar
    17     9    10   ar
    18    10    11    1
    19    10    12   ar
    20    12    13    1
    21    12    14   ar
    22     4     5   ar
    23     5     6   ar
    24    25    20   ar
    25     6     1   ar
    26    14     7   ar
    27    11    15    1
@<TRIPOS>MOLECULE
*****
 25 27 0 0 0
SMALL
GASTEIGER

@<TRIPOS>ATOM
      1 C          63.1943   86.0367   12.0741 C.ar    1  UNL1       -0.0006
      2 C          63.8038   85.8210   13.4275 C.ar    1  UNL1       -0.0000
      3 C          64.0972   86.9952   14.3137 C.ar    1  UNL1        0.0000
      4 C          63.7810   88.3850   13.8464 C.ar    1  UNL1        0.0001
      5 C          63.1714   88.6007   12.4929 C.ar    1  UNL1        0.0000
      6 C          62.8781   87.4266   11.6068 C.ar    1  UNL1       -0.0000
      7 C          64.0744   89.5591   14.7325 C.ar    1  UNL1        0.0024
      8 C          63.3188   89.7375   16.0160 C.ar    1  UNL1        0.0033
      9 C          63.6122   90.9117   16.9022 C.ar    1  UNL1        0.0390
     10 C          64.6612   91.9075   16.5049 C.ar    1  UNL1        0.1610
     11 O          64.9546   93.0816   17.3910 O.3     1  UNL1       -0.5034
     12 C          65.4169   91.7292   15.2214 C.ar    1  UNL1        0.1735
     13 F          66.4659   92.7250   14.8241 F       1  UNL1       -0.2010
     14 C          65.1235   90.5550   14.3353 C.ar    1  UNL1        0.0328
     15 H          64.4826   93.1930   18.1927 H       1  UNL1        0.2923
     16 C          63.6652   83.2478   13.0742 C.3     1  UNL1        0.0264
     17 C          63.1363   83.4681   11.6880 C.2     1  UNL1       -0.0436
     18 C          62.8429   82.2940   10.8018 C.3     1  UNL1        0.0264
     19 C          62.9009   84.8626   11.1879 C.2     1  UNL1       -0.0078
     20 C          62.3720   85.0829    9.8016 C.ar    1  UNL1        0.0025
     21 C          63.1736   84.6396    8.6138 C.ar    1  UNL1        0.0207
     22 C          62.6447   84.8599    7.2276 C.ar    1  UNL1        0.0989
     23 N          61.3142   85.5234    7.0291 N.ar    1  UNL1       -0.2423
     24 C          60.5125   85.9666    8.2169 C.ar    1  UNL1        0.0989
     25 C          61.0414   85.7464    9.6031 C.ar    1  UNL1        0.0207
@<TRIPOS>BOND
     1    16    17    1
     2    17    18    1
     3    17    19    2
     4    19    20    1
     5    20    21   ar
     6    21    22   ar
     7    22    23   ar
     8    23    24   ar
     9    24    25   ar
    10    19     1    1
    11     1     2   ar
    12     2     3   ar
    13     3     4   ar
    14     4     7    1
    15     7     8   ar
    16     8     9   ar
    17     9    10   ar
    18    10    11    1
    19    10    12   ar
    20    12    13    1
    21    12    14   ar
    22     4     5   ar
    23     5     6   ar
    24    25    20   ar
    25     6     1   ar
    26    14     7   ar
    27    11    15    1
