@<TRIPOS>MOLECULE
*****
 17 17 0 0 0
SMALL
GASTEIGER

@<TRIPOS>ATOM
      1 C          62.9923   84.1208   14.1049 C.2     1  UNL1        0.2469
      2 O          61.6221   84.4559   14.6149 O.2     1  UNL1       -0.2728
      3 N          64.2050   84.6681   14.7977 N.am    1  UNL1       -0.1674
      4 O          65.5753   84.3330   14.2877 O.3     1  UNL1       -0.2915
      5 H          65.4993   83.7575   13.5106 H       1  UNL1        0.2417
      6 C          63.1500   83.2384   12.9021 C.3     1  UNL1        0.0710
      7 C          63.2390   82.0368   13.7955 C.3     1  UNL1        0.0092
      8 C          63.0610   84.4401   12.0088 C.3     1  UNL1        0.0092
      9 C          64.1795   82.7912   10.5590 C.3     1  UNL1        0.0005
     10 C          63.3077   82.3560   11.6995 C.3     1  UNL1        0.0087
     11 C          64.0474   85.5505   16.0004 C.3     1  UNL1        0.1501
     12 C          63.8939   87.0326   15.8283 C.ar    1  UNL1        0.0001
     13 C          64.4442   87.7067   14.6066 C.ar    1  UNL1       -0.0025
     14 C          64.2907   89.1889   14.4345 C.ar    1  UNL1       -0.0003
     15 C          63.5870   89.9970   15.4841 C.ar    1  UNL1       -0.0000
     16 C          63.0368   89.3228   16.7059 C.ar    1  UNL1       -0.0003
     17 C          63.1903   87.8407   16.8780 C.ar    1  UNL1       -0.0025
@<TRIPOS>BOND
     1     9    10    1
     2    10     6    1
     3     6     7    1
     4     6     8    1
     5     6     1    1
     6     1     2    2
     7     1     3   am
     8     3     4    1
     9     3    11    1
    10    11    12    1
    11    12    13   ar
    12    13    14   ar
    13    14    15   ar
    14    15    16   ar
    15    16    17   ar
    16    17    12   ar
    17     4     5    1
@<TRIPOS>MOLECULE
*****
 17 17 0 0 0
SMALL
GASTEIGER

@<TRIPOS>ATOM
      1 C          63.9646   84.1460   14.1651 C.2     1  UNL1        0.2469
      2 O          65.4456   84.3831   14.1546 O.2     1  UNL1       -0.2728
      3 N          63.1016   84.8372   15.1788 N.am    1  UNL1       -0.1674
      4 O          61.6204   84.6001   15.1893 O.3     1  UNL1       -0.2915
      5 H          61.3874   83.9790   14.4817 H       1  UNL1        0.2417
      6 C          63.3464   83.2177   13.1620 C.3     1  UNL1        0.0710
      7 C          63.0800   84.3794   12.2512 C.3     1  UNL1        0.0092
      8 C          63.6128   82.0561   14.0728 C.3     1  UNL1        0.0092
      9 C          62.6336   80.8218   12.4538 C.3     1  UNL1        0.0005
     10 C          62.7282   82.2895   12.1589 C.3     1  UNL1        0.0087
     11 C          63.7197   85.7655   16.1819 C.3     1  UNL1        0.1501
     12 C          63.7383   87.2431   15.9246 C.ar    1  UNL1        0.0001
     13 C          64.3837   87.7798   14.6814 C.ar    1  UNL1       -0.0025
     14 C          64.4023   89.2575   14.4241 C.ar    1  UNL1       -0.0003
     15 C          63.7756   90.1984   15.4099 C.ar    1  UNL1       -0.0000
     16 C          63.1302   89.6617   16.6530 C.ar    1  UNL1       -0.0003
     17 C          63.1116   88.1841   16.9103 C.ar    1  UNL1       -0.0025
@<TRIPOS>BOND
     1     9    10    1
     2    10     6    1
     3     6     7    1
     4     6     8    1
     5     6     1    1
     6     1     2    2
     7     1     3   am
     8     3     4    1
     9     3    11    1
    10    11    12    1
    11    12    13   ar
    12    13    14   ar
    13    14    15   ar
    14    15    16   ar
    15    16    17   ar
    16    17    12   ar
    17     4     5    1
@<TRIPOS>MOLECULE
*****
 17 17 0 0 0
SMALL
GASTEIGER

@<TRIPOS>ATOM
      1 C          63.3389   83.5897   13.4048 C.2     1  UNL1        0.2469
      2 O          63.0138   84.5731   12.3199 O.2     1  UNL1       -0.2728
      3 N          64.3019   83.9638   14.4923 N.am    1  UNL1       -0.1674
      4 O          64.6270   82.9803   15.5773 O.3     1  UNL1       -0.2915
      5 H          64.1335   82.1588   15.4275 H       1  UNL1        0.2417
      6 C          62.7009   82.2320   13.4024 C.3     1  UNL1        0.0710
      7 C          61.8044   82.6513   14.5295 C.3     1  UNL1        0.0092
      8 C          63.5974   81.8127   12.2753 C.3     1  UNL1        0.0092
      9 C          60.7598   80.6569   14.1104 C.3     1  UNL1        0.0005
     10 C          62.0630   80.8745   13.4000 C.3     1  UNL1        0.0087
     11 C          64.9399   85.3214   14.4948 C.3     1  UNL1        0.1501
     12 C          64.3017   86.4486   15.2512 C.ar    1  UNL1        0.0001
     13 C          64.4259   87.8556   14.7465 C.ar    1  UNL1       -0.0025
     14 C          63.7877   88.9828   15.5029 C.ar    1  UNL1       -0.0003
     15 C          63.0254   88.7030   16.7640 C.ar    1  UNL1       -0.0000
     16 C          62.9012   87.2959   17.2687 C.ar    1  UNL1       -0.0003
     17 C          63.5393   86.1687   16.5123 C.ar    1  UNL1       -0.0025
@<TRIPOS>BOND
     1     9    10    1
     2    10     6    1
     3     6     7    1
     4     6     8    1
     5     6     1    1
     6     1     2    2
     7     1     3   am
     8     3     4    1
     9     3    11    1
    10    11    12    1
    11    12    13   ar
    12    13    14   ar
    13    14    15   ar
    14    15    16   ar
    15    16    17   ar
    16    17    12   ar
    17     4     5    1
@<TRIPOS>MOLECULE
*****
 17 17 0 0 0
SMALL
GASTEIGER

@<TRIPOS>ATOM
      1 C          63.5311   83.6112   11.2370 C.2     1  UNL1        0.2469
      2 O          64.4609   83.0559   10.1992 O.2     1  UNL1       -0.2728
      3 N          62.6958   84.8180   10.9270 N.am    1  UNL1       -0.1674
      4 O          61.7660   85.3733   11.9649 O.3     1  UNL1       -0.2915
      5 H          61.8263   84.8389   12.7722 H       1  UNL1        0.2417
      6 C          63.4366   82.9598   12.5849 C.3     1  UNL1        0.0710
      7 C          62.4444   81.9758   12.0398 C.3     1  UNL1        0.0092
      8 C          64.4288   83.9438   13.1301 C.3     1  UNL1        0.0092
      9 C          62.0874   81.5897   14.3321 C.3     1  UNL1        0.0005
     10 C          63.3420   82.3084   13.9328 C.3     1  UNL1        0.0087
     11 C          62.7903   85.4694    9.5792 C.3     1  UNL1        0.1501
     12 C          61.7995   86.5243    9.1849 C.ar    1  UNL1        0.0001
     13 C          61.9575   87.9279    9.6899 C.ar    1  UNL1       -0.0025
     14 C          60.9668   88.9828    9.2956 C.ar    1  UNL1       -0.0003
     15 C          59.8180   88.6343    8.3964 C.ar    1  UNL1       -0.0000
     16 C          59.6599   87.2307    7.8914 C.ar    1  UNL1       -0.0003
     17 C          60.6507   86.1758    8.2857 C.ar    1  UNL1       -0.0025
@<TRIPOS>BOND
     1     9    10    1
     2    10     6    1
     3     6     7    1
     4     6     8    1
     5     6     1    1
     6     1     2    2
     7     1     3   am
     8     3     4    1
     9     3    11    1
    10    11    12    1
    11    12    13   ar
    12    13    14   ar
    13    14    15   ar
    14    15    16   ar
    15    16    17   ar
    16    17    12   ar
    17     4     5    1
@<TRIPOS>MOLECULE
*****
 17 17 0 0 0
SMALL
GASTEIGER

@<TRIPOS>ATOM
      1 C          62.1917   86.1527    9.4516 C.2     1  UNL1        0.2469
      2 O          63.1038   85.6493    8.3725 O.2     1  UNL1       -0.2728
      3 N          62.2484   85.5491   10.8237 N.am    1  UNL1       -0.1674
      4 O          61.3363   86.0527   11.9029 O.3     1  UNL1       -0.2915
      5 H          60.7787   86.7633   11.5494 H       1  UNL1        0.2417
      6 C          61.2229   87.2599    9.1588 C.3     1  UNL1        0.0710
      7 C          60.2906   86.2746    8.5185 C.3     1  UNL1        0.0092
      8 C          62.1551   88.2451    9.7991 C.3     1  UNL1        0.0092
      9 C          59.4428   88.3395    7.6045 C.3     1  UNL1        0.0005
     10 C          60.2540   88.3669    8.8660 C.3     1  UNL1        0.0087
     11 C          63.2172   84.4421   11.1165 C.3     1  UNL1        0.1501
     12 C          62.8762   83.3975   12.1376 C.ar    1  UNL1        0.0001
     13 C          62.7311   81.9632   11.7236 C.ar    1  UNL1       -0.0025
     14 C          62.3900   80.9186   12.7446 C.ar    1  UNL1       -0.0003
     15 C          62.1941   81.3084   14.1798 C.ar    1  UNL1       -0.0000
     16 C          62.3392   82.7428   14.5938 C.ar    1  UNL1       -0.0003
     17 C          62.6802   83.7874   13.5727 C.ar    1  UNL1       -0.0025
@<TRIPOS>BOND
     1     9    10    1
     2    10     6    1
     3     6     7    1
     4     6     8    1
     5     6     1    1
     6     1     2    2
     7     1     3   am
     8     3     4    1
     9     3    11    1
    10    11    12    1
    11    12    13   ar
    12    13    14   ar
    13    14    15   ar
    14    15    16   ar
    15    16    17   ar
    16    17    12   ar
    17     4     5    1
@<TRIPOS>MOLECULE
*****
 17 17 0 0 0
SMALL
GASTEIGER

@<TRIPOS>ATOM
      1 C          60.8495   87.4044    9.8966 C.2     1  UNL1        0.2469
      2 O          61.0541   86.7754   11.2428 O.2     1  UNL1       -0.2728
      3 N          60.7550   88.8962    9.7723 N.am    1  UNL1       -0.1674
      4 O          60.5504   89.5252    8.4259 O.3     1  UNL1       -0.2915
      5 H          60.5008   88.8319    7.7493 H       1  UNL1        0.2417
      6 C          60.7394   86.5415    8.6745 C.3     1  UNL1        0.0710
      7 C          62.2020   86.2223    8.7682 C.3     1  UNL1        0.0092
      8 C          59.2768   86.8608    8.5808 C.3     1  UNL1        0.0092
      9 C          61.8352   84.9497    6.9380 C.3     1  UNL1        0.0005
     10 C          60.6294   85.6787    7.4525 C.3     1  UNL1        0.0087
     11 C          60.8651   89.7591   10.9943 C.3     1  UNL1        0.1501
     12 C          62.1723   90.4097   11.3377 C.ar    1  UNL1        0.0001
     13 C          62.9111   91.2022   10.3004 C.ar    1  UNL1       -0.0025
     14 C          64.2183   91.8528   10.6438 C.ar    1  UNL1       -0.0003
     15 C          64.7867   91.7109   12.0247 C.ar    1  UNL1       -0.0000
     16 C          64.0479   90.9185   13.0620 C.ar    1  UNL1       -0.0003
     17 C          62.7407   90.2679   12.7186 C.ar    1  UNL1       -0.0025
@<TRIPOS>BOND
     1     9    10    1
     2    10     6    1
     3     6     7    1
     4     6     8    1
     5     6     1    1
     6     1     2    2
     7     1     3   am
     8     3     4    1
     9     3    11    1
    10    11    12    1
    11    12    13   ar
    12    13    14   ar
    13    14    15   ar
    14    15    16   ar
    15    16    17   ar
    16    17    12   ar
    17     4     5    1
@<TRIPOS>MOLECULE
*****
 17 17 0 0 0
SMALL
GASTEIGER

@<TRIPOS>ATOM
      1 C          62.8152   89.1875   12.2556 C.2     1  UNL1        0.2469
      2 O          63.1102   87.7201   12.1579 O.2     1  UNL1       -0.2728
      3 N          63.5044   90.0236   13.2929 N.am    1  UNL1       -0.1674
      4 O          63.2094   91.4911   13.3905 O.3     1  UNL1       -0.2915
      5 H          62.5568   91.7354   12.7156 H       1  UNL1        0.2417
      6 C          61.8311   89.8189   11.3159 C.3     1  UNL1        0.0710
      7 C          60.7165   89.4959   12.2662 C.3     1  UNL1        0.0092
      8 C          62.9458   90.1419   10.3655 C.3     1  UNL1        0.0092
      9 C          60.1340   89.6083    9.3600 C.3     1  UNL1        0.0005
     10 C          60.8470   90.4503   10.3763 C.3     1  UNL1        0.0087
     11 C          64.4884   89.3923   14.2325 C.3     1  UNL1        0.1501
     12 C          64.0299   88.3518   15.2109 C.ar    1  UNL1        0.0001
     13 C          64.3601   86.9071   14.9791 C.ar    1  UNL1       -0.0025
     14 C          63.9016   85.8666   15.9574 C.ar    1  UNL1       -0.0003
     15 C          63.1129   86.2708   17.1676 C.ar    1  UNL1       -0.0000
     16 C          62.7828   87.7155   17.3994 C.ar    1  UNL1       -0.0003
     17 C          63.2413   88.7560   16.4211 C.ar    1  UNL1       -0.0025
@<TRIPOS>BOND
     1     9    10    1
     2    10     6    1
     3     6     7    1
     4     6     8    1
     5     6     1    1
     6     1     2    2
     7     1     3   am
     8     3     4    1
     9     3    11    1
    10    11    12    1
    11    12    13   ar
    12    13    14   ar
    13    14    15   ar
    14    15    16   ar
    15    16    17   ar
    16    17    12   ar
    17     4     5    1
@<TRIPOS>MOLECULE
*****
 17 17 0 0 0
SMALL
GASTEIGER

@<TRIPOS>ATOM
      1 C          63.5538   83.5951   12.0832 C.2     1  UNL1        0.2469
      2 O          64.3914   83.6057   10.8390 O.2     1  UNL1       -0.2728
      3 N          62.8141   84.8317   12.4999 N.am    1  UNL1       -0.1674
      4 O          61.9764   84.8211   13.7443 O.3     1  UNL1       -0.2915
      5 H          62.0218   83.9445   14.1571 H       1  UNL1        0.2417
      6 C          63.4559   82.3479   12.9109 C.3     1  UNL1        0.0710
      7 C          64.4336   82.9226   13.8926 C.3     1  UNL1        0.0092
      8 C          62.4781   81.7732   11.9292 C.3     1  UNL1        0.0092
      9 C          62.3054   80.0772   13.4310 C.3     1  UNL1        0.0005
     10 C          63.3580   81.1008   13.7385 C.3     1  UNL1        0.0087
     11 C          62.9120   86.0789   11.6723 C.3     1  UNL1        0.1501
     12 C          62.0300   86.2535   10.4717 C.ar    1  UNL1        0.0001
     13 C          62.4346   85.6665    9.1520 C.ar    1  UNL1       -0.0025
     14 C          61.5526   85.8411    7.9514 C.ar    1  UNL1       -0.0003
     15 C          60.2658   86.6027    8.0705 C.ar    1  UNL1       -0.0000
     16 C          59.8611   87.1897    9.3902 C.ar    1  UNL1       -0.0003
     17 C          60.7432   87.0151   10.5908 C.ar    1  UNL1       -0.0025
@<TRIPOS>BOND
     1     9    10    1
     2    10     6    1
     3     6     7    1
     4     6     8    1
     5     6     1    1
     6     1     2    2
     7     1     3   am
     8     3     4    1
     9     3    11    1
    10    11    12    1
    11    12    13   ar
    12    13    14   ar
    13    14    15   ar
    14    15    16   ar
    15    16    17   ar
    16    17    12   ar
    17     4     5    1
@<TRIPOS>MOLECULE
*****
 17 17 0 0 0
SMALL
GASTEIGER

@<TRIPOS>ATOM
      1 C          65.7817   92.1196   13.0828 C.2     1  UNL1        0.2469
      2 O          66.5741   92.2763   11.8190 O.2     1  UNL1       -0.2728
      3 N          64.3443   91.6956   13.0191 N.am    1  UNL1       -0.1674
      4 O          63.5518   91.5389   14.2831 O.3     1  UNL1       -0.2915
      5 H          64.1141   91.7484   15.0453 H       1  UNL1        0.2417
      6 C          66.4267   92.3868   14.4105 C.3     1  UNL1        0.0710
      7 C          66.3786   90.9217   14.7287 C.3     1  UNL1        0.0092
      8 C          66.4748   93.8518   14.0924 C.3     1  UNL1        0.0092
      9 C          68.3186   93.4844   15.8127 C.3     1  UNL1        0.0005
     10 C          67.0717   92.6539   15.7381 C.3     1  UNL1        0.0087
     11 C          63.6993   91.4284   11.6915 C.3     1  UNL1        0.1501
     12 C          63.1419   90.0692   11.3885 C.ar    1  UNL1        0.0001
     13 C          63.3522   88.9402   12.3534 C.ar    1  UNL1       -0.0025
     14 C          62.7947   87.5810   12.0504 C.ar    1  UNL1       -0.0003
     15 C          62.0271   87.3508   10.7825 C.ar    1  UNL1       -0.0000
     16 C          61.8168   88.4798    9.8176 C.ar    1  UNL1       -0.0003
     17 C          62.3742   89.8390   10.1206 C.ar    1  UNL1       -0.0025
@<TRIPOS>BOND
     1     9    10    1
     2    10     6    1
     3     6     7    1
     4     6     8    1
     5     6     1    1
     6     1     2    2
     7     1     3   am
     8     3     4    1
     9     3    11    1
    10    11    12    1
    11    12    13   ar
    12    13    14   ar
    13    14    15   ar
    14    15    16   ar
    15    16    17   ar
    16    17    12   ar
    17     4     5    1
