@<TRIPOS>MOLECULE
*****
 41 45 0 0 0
SMALL
GASTEIGER

@<TRIPOS>ATOM
      1 C          60.6228   88.6280    9.2848 C.2     1  UNL1       -0.0191
      2 C          60.5042   87.1445    9.4720 C.2     1  UNL1        0.0433
      3 C          59.6249   86.3413    8.5599 C.3     1  UNL1        0.0999
      4 N          58.8642   87.0217    7.4607 N.3     1  UNL1       -0.2933
      5 C          58.9828   88.5053    7.2734 C.3     1  UNL1        0.0735
      6 C          59.8621   89.3084    8.1855 C.3     1  UNL1        0.0433
      7 H          57.8765   86.8230    7.6195 H       1  UNL1        0.1236
      8 C          63.2607   91.0374   12.0209 C.ar    1  UNL1        0.1387
      9 C          62.1599   90.1935   12.5918 C.ar    1  UNL1        0.0369
     10 C          61.2806   89.3904   11.6798 C.ar    1  UNL1        0.0028
     11 C          61.5021   89.4311   10.1968 C.ar    1  UNL1       -0.0038
     12 C          62.6029   90.2751    9.6258 C.ar    1  UNL1        0.0028
     13 C          63.4822   91.0782   10.5378 C.ar    1  UNL1        0.0369
     14 O          64.1400   91.8406   12.9329 O.3     1  UNL1       -0.4714
     15 C          65.5253   92.2178   12.4986 C.3     1  UNL1        0.2525
     16 C          66.1117   93.5324   12.9204 C.3     1  UNL1        0.2525
     17 O          67.2205   94.1501   12.1210 O.3     1  UNL1       -0.4697
     18 C          66.0177   96.8129    6.8805 C.3     1  UNL1        0.0311
     19 C          66.3184   96.1472    8.1907 C.ar    1  UNL1       -0.0200
     20 C          66.9658   94.7943    8.2133 C.ar    1  UNL1        0.0103
     21 C          67.2665   94.1286    9.5235 C.ar    1  UNL1        0.0921
     22 CL         67.9138   92.7756    9.5461 Cl      1  UNL1       -0.0791
     23 C          66.9198   94.8158   10.8109 C.ar    1  UNL1        0.1596
     24 C          66.2724   96.1687   10.7882 C.ar    1  UNL1        0.0921
     25 CL         65.9257   96.8559   12.0757 Cl      1  UNL1       -0.0791
     26 C          65.9718   96.8344    9.4781 C.ar    1  UNL1        0.0103
     27 C          61.2649   86.4640   10.5713 C.2     1  UNL1        0.2462
     28 O          60.8781   86.6907   12.0027 O.2     1  UNL1       -0.2702
     29 N          62.4125   85.5570   10.2391 N.am    1  UNL1       -0.2738
     30 C          62.7993   85.3303    8.8077 C.3     1  UNL1        0.0760
     31 C          63.8224   85.3951    7.7127 C.3     1  UNL1        0.0215
     32 C          62.4463   84.8729    7.4235 C.3     1  UNL1        0.0215
     33 C          63.1731   84.8766   11.3384 C.3     1  UNL1        0.1212
     34 C          63.0591   83.3922   11.5219 C.ar    1  UNL1        0.0091
     35 C          63.4173   82.4676   10.3964 C.ar    1  UNL1       -0.0017
     36 C          63.3033   80.9833   10.5798 C.ar    1  UNL1        0.0007
     37 C          62.8312   80.4235   11.8889 C.ar    1  UNL1        0.0122
     38 C          62.4730   81.3481   13.0145 C.ar    1  UNL1        0.0679
     39 CL         62.0009   80.7882   14.3236 Cl      1  UNL1       -0.0814
     40 C          62.5870   82.8324   12.8310 C.ar    1  UNL1        0.0658
     41 CL         62.2288   83.7570   13.9566 Cl      1  UNL1       -0.0816
@<TRIPOS>BOND
     1    18    19    1
     2    19    20   ar
     3    20    21   ar
     4    21    22    1
     5    21    23   ar
     6    23    17    1
     7    17    16    1
     8    16    15    1
     9    15    14    1
    10    14     8    1
    11     8     9   ar
    12     9    10   ar
    13    10    11   ar
    14    11     1    1
    15     1     2    2
    16     2    27    1
    17    27    28    2
    18    27    29   am
    19    29    33    1
    20    33    34    1
    21    34    35   ar
    22    35    36   ar
    23    36    37   ar
    24    37    38   ar
    25    38    39    1
    26    38    40   ar
    27    40    41    1
    28    29    30    1
    29    30    31    1
    30    31    32    1
    31     2     3    1
    32     3     4    1
    33     4     5    1
    34     5     6    1
    35    11    12   ar
    36    12    13   ar
    37    23    24   ar
    38    24    25    1
    39    24    26   ar
    40    26    19   ar
    41    13     8   ar
    42     6     1    1
    43    40    34   ar
    44    32    30    1
    45     4     7    1
@<TRIPOS>MOLECULE
*****
 41 45 0 0 0
SMALL
GASTEIGER

@<TRIPOS>ATOM
      1 C          60.4621   88.9485    9.0897 C.2     1  UNL1       -0.0191
      2 C          60.1409   87.5009    9.3162 C.2     1  UNL1        0.0433
      3 C          59.2509   86.7707    8.3545 C.3     1  UNL1        0.0999
      4 N          58.6822   87.4881    7.1663 N.3     1  UNL1       -0.2933
      5 C          59.0034   88.9357    6.9397 C.3     1  UNL1        0.0735
      6 C          59.8933   89.6659    7.9014 C.3     1  UNL1        0.0433
      7 H          57.6671   87.4196    7.2391 H       1  UNL1        0.1236
      8 C          63.1319   91.1390   11.9747 C.ar    1  UNL1        0.1387
      9 C          63.6466   90.7572   10.6185 C.ar    1  UNL1        0.0369
     10 C          62.7566   90.0270    9.6569 C.ar    1  UNL1        0.0028
     11 C          61.3520   89.6786   10.0513 C.ar    1  UNL1       -0.0038
     12 C          60.8373   90.0605   11.4076 C.ar    1  UNL1        0.0028
     13 C          61.7272   90.7907   12.3693 C.ar    1  UNL1        0.0369
     14 O          64.0218   91.8692   12.9364 O.3     1  UNL1       -0.4714
     15 C          65.4469   92.1584   12.5679 C.3     1  UNL1        0.2525
     16 C          66.0156   93.5286   12.7897 C.3     1  UNL1        0.2525
     17 O          67.1697   94.0051   11.9585 O.3     1  UNL1       -0.4697
     18 C          66.1598   96.8489    6.7727 C.3     1  UNL1        0.0311
     19 C          66.4123   96.1380    8.0691 C.ar    1  UNL1       -0.0200
     20 C          66.0584   96.7990    9.3683 C.ar    1  UNL1        0.0103
     21 C          66.3109   96.0880   10.6647 C.ar    1  UNL1        0.0921
     22 CL         65.9570   96.7491   11.9639 Cl      1  UNL1       -0.0791
     23 C          66.9172   94.7161   10.6620 C.ar    1  UNL1        0.1596
     24 C          67.2711   94.0551    9.3629 C.ar    1  UNL1        0.0921
     25 CL         67.8775   92.6831    9.3602 Cl      1  UNL1       -0.0791
     26 C          67.0186   94.7660    8.0664 C.ar    1  UNL1        0.0103
     27 C          60.7096   86.7835   10.5044 C.2     1  UNL1        0.2462
     28 O          60.1699   87.0599   11.8764 O.2     1  UNL1       -0.2702
     29 N          61.8180   85.7897   10.3207 N.am    1  UNL1       -0.2738
     30 C          62.3577   85.5133    8.9487 C.3     1  UNL1        0.0760
     31 C          62.1605   84.9932    7.5557 C.3     1  UNL1        0.0215
     32 C          63.4897   85.5546    7.9655 C.3     1  UNL1        0.0215
     33 C          62.3867   85.0723   11.5089 C.3     1  UNL1        0.1212
     34 C          63.0469   85.8495   12.6090 C.ar    1  UNL1        0.0091
     35 C          63.3061   87.3171   12.4392 C.ar    1  UNL1       -0.0017
     36 C          63.9663   88.0944   13.5392 C.ar    1  UNL1        0.0007
     37 C          64.3673   87.4039   14.8089 C.ar    1  UNL1        0.0122
     38 C          64.1082   85.9363   14.9787 C.ar    1  UNL1        0.0679
     39 CL         64.5093   85.2458   16.2486 Cl      1  UNL1       -0.0814
     40 C          63.4480   85.1590   13.8787 C.ar    1  UNL1        0.0658
     41 CL         63.1888   83.6914   14.0485 Cl      1  UNL1       -0.0816
@<TRIPOS>BOND
     1    18    19    1
     2    19    20   ar
     3    20    21   ar
     4    21    22    1
     5    21    23   ar
     6    23    17    1
     7    17    16    1
     8    16    15    1
     9    15    14    1
    10    14     8    1
    11     8     9   ar
    12     9    10   ar
    13    10    11   ar
    14    11     1    1
    15     1     2    2
    16     2    27    1
    17    27    28    2
    18    27    29   am
    19    29    33    1
    20    33    34    1
    21    34    35   ar
    22    35    36   ar
    23    36    37   ar
    24    37    38   ar
    25    38    39    1
    26    38    40   ar
    27    40    41    1
    28    29    30    1
    29    30    31    1
    30    31    32    1
    31     2     3    1
    32     3     4    1
    33     4     5    1
    34     5     6    1
    35    11    12   ar
    36    12    13   ar
    37    23    24   ar
    38    24    25    1
    39    24    26   ar
    40    26    19   ar
    41    13     8   ar
    42     6     1    1
    43    40    34   ar
    44    32    30    1
    45     4     7    1
@<TRIPOS>MOLECULE
*****
 41 45 0 0 0
SMALL
GASTEIGER

@<TRIPOS>ATOM
      1 C          60.8264   87.2192    8.6680 C.2     1  UNL1       -0.0191
      2 C          61.0100   88.6123    9.1930 C.2     1  UNL1        0.0433
      3 C          60.1319   89.7226    8.6968 C.3     1  UNL1        0.0999
      4 N          59.0703   89.4398    7.6755 N.3     1  UNL1       -0.2933
      5 C          58.8867   88.0467    7.1505 C.3     1  UNL1        0.0735
      6 C          59.7648   86.9364    7.6467 C.3     1  UNL1        0.0433
      7 H          59.2702   90.0338    6.8708 H       1  UNL1        0.1236
      8 C          63.4606   83.8884   10.1568 C.ar    1  UNL1        0.1387
      9 C          62.4884   84.5491   11.0885 C.ar    1  UNL1        0.0369
     10 C          61.6103   85.6594   10.5922 C.ar    1  UNL1        0.0028
     11 C          61.7045   86.1089    9.1643 C.ar    1  UNL1       -0.0038
     12 C          62.6768   85.4481    8.2325 C.ar    1  UNL1        0.0028
     13 C          63.5548   84.3378    8.7288 C.ar    1  UNL1        0.0369
     14 O          64.3387   82.7781   10.6531 O.3     1  UNL1       -0.4714
     15 C          63.7563   81.6789   11.4914 C.3     1  UNL1        0.2525
     16 C          63.8770   81.7310   12.9856 C.3     1  UNL1        0.2525
     17 O          64.7281   82.7829   13.6331 O.3     1  UNL1       -0.4697
     18 C          62.2716   86.6863   17.4709 C.3     1  UNL1        0.0311
     19 C          62.8857   85.7104   16.5115 C.ar    1  UNL1       -0.0200
     20 C          62.1072   84.5098   16.0618 C.ar    1  UNL1        0.0103
     21 C          62.7213   83.5339   15.1023 C.ar    1  UNL1        0.0921
     22 CL         61.9427   82.3332   14.6527 Cl      1  UNL1       -0.0791
     23 C          64.1139   83.7587   14.5925 C.ar    1  UNL1        0.1596
     24 C          64.8925   84.9594   15.0422 C.ar    1  UNL1        0.0921
     25 CL         66.2852   85.1843   14.5324 Cl      1  UNL1       -0.0791
     26 C          64.2783   85.9353   16.0017 C.ar    1  UNL1        0.0103
     27 C          62.0716   88.8951   10.2143 C.2     1  UNL1        0.2462
     28 O          63.5090   88.5991    9.9038 O.2     1  UNL1       -0.2702
     29 N          61.6959   89.4739   11.5462 N.am    1  UNL1       -0.2738
     30 C          60.2586   89.7699   11.8568 C.3     1  UNL1        0.0760
     31 C          59.0738   90.6861   11.7743 C.3     1  UNL1        0.0215
     32 C          58.9539   89.3664   12.4772 C.3     1  UNL1        0.0215
     33 C          62.7575   89.7567   12.5674 C.3     1  UNL1        0.1212
     34 C          63.7615   90.8443   12.3241 C.ar    1  UNL1        0.0091
     35 C          63.8144   91.5320   10.9921 C.ar    1  UNL1       -0.0017
     36 C          64.8183   92.6195   10.7488 C.ar    1  UNL1        0.0007
     37 C          65.7694   93.0195   11.8375 C.ar    1  UNL1        0.0122
     38 C          65.7166   92.3318   13.1696 C.ar    1  UNL1        0.0679
     39 CL         66.6677   92.7318   14.2584 Cl      1  UNL1       -0.0814
     40 C          64.7126   91.2443   13.4129 C.ar    1  UNL1        0.0658
     41 CL         64.6598   90.5566   14.7449 Cl      1  UNL1       -0.0816
@<TRIPOS>BOND
     1    18    19    1
     2    19    20   ar
     3    20    21   ar
     4    21    22    1
     5    21    23   ar
     6    23    17    1
     7    17    16    1
     8    16    15    1
     9    15    14    1
    10    14     8    1
    11     8     9   ar
    12     9    10   ar
    13    10    11   ar
    14    11     1    1
    15     1     2    2
    16     2    27    1
    17    27    28    2
    18    27    29   am
    19    29    33    1
    20    33    34    1
    21    34    35   ar
    22    35    36   ar
    23    36    37   ar
    24    37    38   ar
    25    38    39    1
    26    38    40   ar
    27    40    41    1
    28    29    30    1
    29    30    31    1
    30    31    32    1
    31     2     3    1
    32     3     4    1
    33     4     5    1
    34     5     6    1
    35    11    12   ar
    36    12    13   ar
    37    23    24   ar
    38    24    25    1
    39    24    26   ar
    40    26    19   ar
    41    13     8   ar
    42     6     1    1
    43    40    34   ar
    44    32    30    1
    45     4     7    1
@<TRIPOS>MOLECULE
*****
 41 45 0 0 0
SMALL
GASTEIGER

@<TRIPOS>ATOM
      1 C          65.5814   91.6780   14.8539 C.2     1  UNL1       -0.0191
      2 C          65.2677   92.3086   13.5296 C.2     1  UNL1        0.0433
      3 C          66.0764   93.4747   13.0437 C.3     1  UNL1        0.0999
      4 N          67.1989   94.0102   13.8821 N.3     1  UNL1       -0.2933
      5 C          67.5128   93.3797   15.2065 C.3     1  UNL1        0.0735
      6 C          66.7040   92.2135   15.6924 C.3     1  UNL1        0.0433
      7 H          66.9873   94.9910   14.0658 H       1  UNL1        0.1236
      8 C          63.1552   88.1796   16.3115 C.ar    1  UNL1        0.1387
      9 C          64.1546   87.9918   15.2088 C.ar    1  UNL1        0.0369
     10 C          64.9634   89.1579   14.7230 C.ar    1  UNL1        0.0028
     11 C          64.7727   90.5119   15.3397 C.ar    1  UNL1       -0.0038
     12 C          63.7732   90.6997   16.4424 C.ar    1  UNL1        0.0028
     13 C          62.9645   89.5336   16.9283 C.ar    1  UNL1        0.0369
     14 O          62.3464   87.0135   16.7973 O.3     1  UNL1       -0.4714
     15 C          62.9451   85.6381   16.8081 C.3     1  UNL1        0.2525
     16 C          62.2581   84.5155   16.0885 C.3     1  UNL1        0.2525
     17 O          63.0309   83.2905   15.6983 O.3     1  UNL1       -0.4697
     18 C          64.0154   82.0836    9.9040 C.3     1  UNL1        0.0311
     19 C          63.7693   82.3853   11.3526 C.ar    1  UNL1       -0.0200
     20 C          62.6696   81.6798   12.0893 C.ar    1  UNL1        0.0103
     21 C          62.4234   81.9815   13.5379 C.ar    1  UNL1        0.0921
     22 CL         61.3237   81.2759   14.2746 Cl      1  UNL1       -0.0791
     23 C          63.2770   82.9888   14.2498 C.ar    1  UNL1        0.1596
     24 C          64.3767   83.6943   13.5130 C.ar    1  UNL1        0.0921
     25 CL         65.2304   84.7017   14.2249 Cl      1  UNL1       -0.0791
     26 C          64.6229   83.3926   12.0644 C.ar    1  UNL1        0.0103
     27 C          64.1451   91.7730   12.6910 C.2     1  UNL1        0.2462
     28 O          62.8975   91.2600   13.3472 O.2     1  UNL1       -0.2702
     29 N          64.2700   91.7505   11.1964 N.am    1  UNL1       -0.2738
     30 C          65.5176   92.2634   10.5403 C.3     1  UNL1        0.0760
     31 C          66.9436   92.0592   10.1223 C.3     1  UNL1        0.0215
     32 C          66.2523   93.3561    9.8219 C.3     1  UNL1        0.0215
     33 C          63.1475   91.2149   10.3580 C.3     1  UNL1        0.1212
     34 C          62.6459   89.8187   10.5796 C.ar    1  UNL1        0.0091
     35 C          63.3159   88.9321   11.5871 C.ar    1  UNL1       -0.0017
     36 C          62.8143   87.5360   11.8087 C.ar    1  UNL1        0.0007
     37 C          61.6428   87.0264   11.0228 C.ar    1  UNL1        0.0122
     38 C          60.9728   87.9130   10.0153 C.ar    1  UNL1        0.0679
     39 CL         59.8011   87.4033    9.2293 Cl      1  UNL1       -0.0814
     40 C          61.4743   89.3091    9.7937 C.ar    1  UNL1        0.0658
     41 CL         60.8043   90.1957    8.7861 Cl      1  UNL1       -0.0816
@<TRIPOS>BOND
     1    18    19    1
     2    19    20   ar
     3    20    21   ar
     4    21    22    1
     5    21    23   ar
     6    23    17    1
     7    17    16    1
     8    16    15    1
     9    15    14    1
    10    14     8    1
    11     8     9   ar
    12     9    10   ar
    13    10    11   ar
    14    11     1    1
    15     1     2    2
    16     2    27    1
    17    27    28    2
    18    27    29   am
    19    29    33    1
    20    33    34    1
    21    34    35   ar
    22    35    36   ar
    23    36    37   ar
    24    37    38   ar
    25    38    39    1
    26    38    40   ar
    27    40    41    1
    28    29    30    1
    29    30    31    1
    30    31    32    1
    31     2     3    1
    32     3     4    1
    33     4     5    1
    34     5     6    1
    35    11    12   ar
    36    12    13   ar
    37    23    24   ar
    38    24    25    1
    39    24    26   ar
    40    26    19   ar
    41    13     8   ar
    42     6     1    1
    43    40    34   ar
    44    32    30    1
    45     4     7    1
@<TRIPOS>MOLECULE
*****
 41 45 0 0 0
SMALL
GASTEIGER

@<TRIPOS>ATOM
      1 C          60.9102   88.6372    9.7147 C.2     1  UNL1       -0.0191
      2 C          60.8605   87.1427    9.8320 C.2     1  UNL1        0.0433
      3 C          59.9874   86.3465    8.9080 C.3     1  UNL1        0.0999
      4 N          59.1640   87.0448    7.8667 N.3     1  UNL1       -0.2933
      5 C          59.2137   88.5395    7.7494 C.3     1  UNL1        0.0735
      6 C          60.0868   89.3357    8.6734 C.3     1  UNL1        0.0433
      7 H          58.1911   86.7956    8.0447 H       1  UNL1        0.1236
      8 C          63.5295   91.0258   12.4867 C.ar    1  UNL1        0.1387
      9 C          63.7609   91.0779   11.0056 C.ar    1  UNL1        0.0369
     10 C          62.8878   90.2817   10.0816 C.ar    1  UNL1        0.0028
     11 C          61.7833   89.4334   10.6387 C.ar    1  UNL1       -0.0038
     12 C          61.5519   89.3813   12.1199 C.ar    1  UNL1        0.0028
     13 C          62.4250   90.1775   13.0439 C.ar    1  UNL1        0.0369
     14 O          64.4026   91.8220   13.4107 O.3     1  UNL1       -0.4714
     15 C          65.8856   91.5969   13.4209 C.3     1  UNL1        0.2525
     16 C          66.8127   92.6865   12.9702 C.3     1  UNL1        0.2525
     17 O          67.5069   92.5801   11.6448 O.3     1  UNL1       -0.4697
     18 C          66.7414   96.8559    7.5057 C.3     1  UNL1        0.0311
     19 C          66.9327   95.7870    8.5405 C.ar    1  UNL1       -0.0200
     20 C          66.4411   96.0023    9.9411 C.ar    1  UNL1        0.0103
     21 C          66.6324   94.9334   10.9759 C.ar    1  UNL1        0.0921
     22 CL         66.1407   95.1488   12.3766 Cl      1  UNL1       -0.0791
     23 C          67.3155   93.6491   10.6100 C.ar    1  UNL1        0.1596
     24 C          67.8072   93.4337    9.2094 C.ar    1  UNL1        0.0921
     25 CL         68.4903   92.1493    8.8435 Cl      1  UNL1       -0.0791
     26 C          67.6158   94.5026    8.1746 C.ar    1  UNL1        0.0103
     27 C          61.6839   86.4442   10.8733 C.2     1  UNL1        0.2462
     28 O          61.4335   86.7080   12.3285 O.2     1  UNL1       -0.2702
     29 N          62.7576   85.4821   10.4593 N.am    1  UNL1       -0.2738
     30 C          63.0080   85.2184    9.0041 C.3     1  UNL1        0.0760
     31 C          63.9355   85.2157    7.8252 C.3     1  UNL1        0.0215
     32 C          62.5143   84.7644    7.6625 C.3     1  UNL1        0.0215
     33 C          63.5810   84.7838   11.5006 C.3     1  UNL1        0.1212
     34 C          63.0387   83.5702   12.1959 C.ar    1  UNL1        0.0091
     35 C          62.3727   83.7068   13.5329 C.ar    1  UNL1       -0.0017
     36 C          61.8304   82.4933   14.2282 C.ar    1  UNL1        0.0007
     37 C          61.9542   81.1432   13.5864 C.ar    1  UNL1        0.0122
     38 C          62.6203   81.0067   12.2493 C.ar    1  UNL1        0.0679
     39 CL         62.7441   79.6565   11.6075 Cl      1  UNL1       -0.0814
     40 C          63.1625   82.2201   11.5541 C.ar    1  UNL1        0.0658
     41 CL         63.8286   82.0835   10.2170 Cl      1  UNL1       -0.0816
@<TRIPOS>BOND
     1    18    19    1
     2    19    20   ar
     3    20    21   ar
     4    21    22    1
     5    21    23   ar
     6    23    17    1
     7    17    16    1
     8    16    15    1
     9    15    14    1
    10    14     8    1
    11     8     9   ar
    12     9    10   ar
    13    10    11   ar
    14    11     1    1
    15     1     2    2
    16     2    27    1
    17    27    28    2
    18    27    29   am
    19    29    33    1
    20    33    34    1
    21    34    35   ar
    22    35    36   ar
    23    36    37   ar
    24    37    38   ar
    25    38    39    1
    26    38    40   ar
    27    40    41    1
    28    29    30    1
    29    30    31    1
    30    31    32    1
    31     2     3    1
    32     3     4    1
    33     4     5    1
    34     5     6    1
    35    11    12   ar
    36    12    13   ar
    37    23    24   ar
    38    24    25    1
    39    24    26   ar
    40    26    19   ar
    41    13     8   ar
    42     6     1    1
    43    40    34   ar
    44    32    30    1
    45     4     7    1
@<TRIPOS>MOLECULE
*****
 41 45 0 0 0
SMALL
GASTEIGER

@<TRIPOS>ATOM
      1 C          60.5340   88.5799    9.1960 C.2     1  UNL1       -0.0191
      2 C          60.5010   87.0891    9.3586 C.2     1  UNL1        0.0433
      3 C          59.6882   86.2499    8.4178 C.3     1  UNL1        0.0999
      4 N          58.9085   86.9014    7.3144 N.3     1  UNL1       -0.2933
      5 C          58.9416   88.3922    7.1517 C.3     1  UNL1        0.0735
      6 C          59.7543   89.2315    8.0925 C.3     1  UNL1        0.0433
      7 H          57.9317   86.6417    7.4510 H       1  UNL1        0.1236
      8 C          62.9723   91.0975   12.0184 C.ar    1  UNL1        0.1387
      9 C          61.7158   90.4345   12.4996 C.ar    1  UNL1        0.0369
     10 C          60.9031   89.5952   11.5588 C.ar    1  UNL1        0.0028
     11 C          61.3468   89.4191   10.1368 C.ar    1  UNL1       -0.0038
     12 C          62.6033   90.0822    9.6556 C.ar    1  UNL1        0.0028
     13 C          63.4161   90.9214   10.5964 C.ar    1  UNL1        0.0369
     14 O          63.7850   91.9368   12.9593 O.3     1  UNL1       -0.4714
     15 C          64.7509   91.2838   13.9031 C.3     1  UNL1        0.2525
     16 C          65.9172   92.0603   14.4388 C.3     1  UNL1        0.2525
     17 O          66.4843   93.2023   13.6488 O.3     1  UNL1       -0.4697
     18 C          68.8339   92.2183    8.2164 C.3     1  UNL1        0.0311
     19 C          68.2465   92.4643    9.5745 C.ar    1  UNL1       -0.0200
     20 C          67.0876   93.4036    9.7315 C.ar    1  UNL1        0.0103
     21 C          66.5002   93.6496   11.0896 C.ar    1  UNL1        0.0921
     22 CL         65.3413   94.5889   11.2466 Cl      1  UNL1       -0.0791
     23 C          67.0717   92.9563   12.2907 C.ar    1  UNL1        0.1596
     24 C          68.2305   92.0170   12.1338 C.ar    1  UNL1        0.0921
     25 CL         68.8021   91.3237   13.3349 Cl      1  UNL1       -0.0791
     26 C          68.8179   91.7710   10.7757 C.ar    1  UNL1        0.0103
     27 C          61.2807   86.4375   10.4620 C.2     1  UNL1        0.2462
     28 O          60.8829   86.6561   11.8917 O.2     1  UNL1       -0.2702
     29 N          62.4581   85.5673   10.1358 N.am    1  UNL1       -0.2738
     30 C          62.8559   85.3487    8.7061 C.3     1  UNL1        0.0760
     31 C          63.7663   85.6444    7.5513 C.3     1  UNL1        0.0215
     32 C          62.6343   84.6744    7.3847 C.3     1  UNL1        0.0215
     33 C          63.2377   84.9158   11.2392 C.3     1  UNL1        0.1212
     34 C          63.0637   83.4520   11.5175 C.ar    1  UNL1        0.0091
     35 C          63.4383   82.4407   10.4749 C.ar    1  UNL1       -0.0017
     36 C          63.2643   80.9771   10.7532 C.ar    1  UNL1        0.0007
     37 C          62.7156   80.5248   12.0739 C.ar    1  UNL1        0.0122
     38 C          62.3409   81.5361   13.1164 C.ar    1  UNL1        0.0679
     39 CL         61.7922   81.0838   14.4372 Cl      1  UNL1       -0.0814
     40 C          62.5150   82.9998   12.8382 C.ar    1  UNL1        0.0658
     41 CL         62.1404   84.0111   13.8807 Cl      1  UNL1       -0.0816
@<TRIPOS>BOND
     1    18    19    1
     2    19    20   ar
     3    20    21   ar
     4    21    22    1
     5    21    23   ar
     6    23    17    1
     7    17    16    1
     8    16    15    1
     9    15    14    1
    10    14     8    1
    11     8     9   ar
    12     9    10   ar
    13    10    11   ar
    14    11     1    1
    15     1     2    2
    16     2    27    1
    17    27    28    2
    18    27    29   am
    19    29    33    1
    20    33    34    1
    21    34    35   ar
    22    35    36   ar
    23    36    37   ar
    24    37    38   ar
    25    38    39    1
    26    38    40   ar
    27    40    41    1
    28    29    30    1
    29    30    31    1
    30    31    32    1
    31     2     3    1
    32     3     4    1
    33     4     5    1
    34     5     6    1
    35    11    12   ar
    36    12    13   ar
    37    23    24   ar
    38    24    25    1
    39    24    26   ar
    40    26    19   ar
    41    13     8   ar
    42     6     1    1
    43    40    34   ar
    44    32    30    1
    45     4     7    1
@<TRIPOS>MOLECULE
*****
 41 45 0 0 0
SMALL
GASTEIGER

@<TRIPOS>ATOM
      1 C          62.8431   93.2583    1.3450 C.2     1  UNL1       -0.0191
      2 C          62.3967   93.3986   -0.0801 C.2     1  UNL1        0.0433
      3 C          63.3586   93.8857   -1.1229 C.3     1  UNL1        0.0999
      4 N          64.7669   94.2325   -0.7405 N.3     1  UNL1       -0.2933
      5 C          65.2134   94.0923    0.6846 C.3     1  UNL1        0.0735
      6 C          64.2515   93.6052    1.7274 C.3     1  UNL1        0.0433
      7 H          64.9104   95.2087   -0.9993 H       1  UNL1        0.1236
      8 C          59.9573   91.7970    4.4734 C.ar    1  UNL1        0.1387
      9 C          61.3121   91.1654    4.3493 C.ar    1  UNL1        0.0369
     10 C          62.2740   91.6525    3.3065 C.ar    1  UNL1        0.0028
     11 C          61.8811   92.7712    2.3878 C.ar    1  UNL1       -0.0038
     12 C          60.5263   93.4030    2.5119 C.ar    1  UNL1        0.0028
     13 C          59.5643   92.9159    3.5547 C.ar    1  UNL1        0.0369
     14 O          58.9953   91.3099    5.5162 O.3     1  UNL1       -0.4714
     15 C          59.0483   89.8836    5.9776 C.3     1  UNL1        0.2525
     16 C          59.7033   89.5415    7.2830 C.3     1  UNL1        0.2525
     17 O          59.1426   88.4444    8.1386 O.3     1  UNL1       -0.4697
     18 C          62.7081   85.5058   11.9663 C.3     1  UNL1        0.0311
     19 C          61.8167   86.2404   11.0094 C.ar    1  UNL1       -0.0200
     20 C          61.2915   87.5993   11.3663 C.ar    1  UNL1        0.0103
     21 C          60.4002   88.3340   10.4094 C.ar    1  UNL1        0.0921
     22 CL         59.8749   89.6930   10.7663 Cl      1  UNL1       -0.0791
     23 C          60.0340   87.7098    9.0955 C.ar    1  UNL1        0.1596
     24 C          60.5592   86.3508    8.7386 C.ar    1  UNL1        0.0921
     25 CL         60.1931   85.7265    7.4248 Cl      1  UNL1       -0.0791
     26 C          61.4506   85.6162    9.6956 C.ar    1  UNL1        0.0103
     27 C          60.9882   93.0518   -0.4625 C.2     1  UNL1        0.2462
     28 O          60.5455   91.6187   -0.4741 O.2     1  UNL1       -0.2702
     29 N          60.0226   94.1381   -0.8331 N.am    1  UNL1       -0.2738
     30 C          60.4653   95.5712   -0.8215 C.3     1  UNL1        0.0760
     31 C          60.8693   96.7998   -0.0617 C.3     1  UNL1        0.0215
     32 C          60.8280   96.8248   -1.5610 C.3     1  UNL1        0.0215
     33 C          58.6143   93.7913   -1.2155 C.3     1  UNL1        0.1212
     34 C          58.2697   93.5302   -2.6519 C.ar    1  UNL1        0.0091
     35 C          59.0224   94.2320   -3.7432 C.ar    1  UNL1       -0.0017
     36 C          58.6779   93.9710   -5.1796 C.ar    1  UNL1        0.0007
     37 C          57.5807   93.0082   -5.5246 C.ar    1  UNL1        0.0122
     38 C          56.8280   92.3064   -4.4333 C.ar    1  UNL1        0.0679
     39 CL         55.7307   91.3435   -4.7784 Cl      1  UNL1       -0.0814
     40 C          57.1725   92.5674   -2.9970 C.ar    1  UNL1        0.0658
     41 CL         56.4198   91.8656   -1.9057 Cl      1  UNL1       -0.0816
@<TRIPOS>BOND
     1    18    19    1
     2    19    20   ar
     3    20    21   ar
     4    21    22    1
     5    21    23   ar
     6    23    17    1
     7    17    16    1
     8    16    15    1
     9    15    14    1
    10    14     8    1
    11     8     9   ar
    12     9    10   ar
    13    10    11   ar
    14    11     1    1
    15     1     2    2
    16     2    27    1
    17    27    28    2
    18    27    29   am
    19    29    33    1
    20    33    34    1
    21    34    35   ar
    22    35    36   ar
    23    36    37   ar
    24    37    38   ar
    25    38    39    1
    26    38    40   ar
    27    40    41    1
    28    29    30    1
    29    30    31    1
    30    31    32    1
    31     2     3    1
    32     3     4    1
    33     4     5    1
    34     5     6    1
    35    11    12   ar
    36    12    13   ar
    37    23    24   ar
    38    24    25    1
    39    24    26   ar
    40    26    19   ar
    41    13     8   ar
    42     6     1    1
    43    40    34   ar
    44    32    30    1
    45     4     7    1
@<TRIPOS>MOLECULE
*****
 41 45 0 0 0
SMALL
GASTEIGER

@<TRIPOS>ATOM
      1 C          62.3094   93.3984    1.5007 C.2     1  UNL1       -0.0191
      2 C          61.7396   93.5077    0.1174 C.2     1  UNL1        0.0433
      3 C          62.5508   94.1287   -0.9809 C.3     1  UNL1        0.0999
      4 N          63.9317   94.6404   -0.6960 N.3     1  UNL1       -0.2933
      5 C          64.5015   94.5311    0.6873 C.3     1  UNL1        0.0735
      6 C          63.6903   93.9101    1.7856 C.3     1  UNL1        0.0433
      7 H          63.9343   95.6313   -0.9381 H       1  UNL1        0.1236
      8 C          59.8759   91.5354    4.7957 C.ar    1  UNL1        0.1387
      9 C          61.2513   91.0181    4.4947 C.ar    1  UNL1        0.0369
     10 C          62.0624   91.6391    3.3964 C.ar    1  UNL1        0.0028
     11 C          61.4982   92.7774    2.5990 C.ar    1  UNL1       -0.0038
     12 C          60.1227   93.2948    2.9000 C.ar    1  UNL1        0.0028
     13 C          59.3116   92.6738    3.9984 C.ar    1  UNL1        0.0369
     14 O          59.0647   90.9144    5.8941 O.3     1  UNL1       -0.4714
     15 C          59.3039   89.4868    6.2878 C.3     1  UNL1        0.2525
     16 C          59.8044   89.1622    7.6641 C.3     1  UNL1        0.2525
     17 O          59.3379   87.9166    8.3574 O.3     1  UNL1       -0.4697
     18 C          63.1252   84.8179   11.8293 C.3     1  UNL1        0.0311
     19 C          62.1784   85.5926   10.9613 C.ar    1  UNL1       -0.0200
     20 C          62.0302   85.2390    9.5112 C.ar    1  UNL1        0.0103
     21 C          61.0834   86.0136    8.6432 C.ar    1  UNL1        0.0921
     22 CL         60.9353   85.6600    7.1930 Cl      1  UNL1       -0.0791
     23 C          60.2847   87.1419    9.2254 C.ar    1  UNL1        0.1596
     24 C          60.4328   87.4956   10.6755 C.ar    1  UNL1        0.0921
     25 CL         59.6341   88.6239   11.2578 Cl      1  UNL1       -0.0791
     26 C          61.3797   86.7209   11.5435 C.ar    1  UNL1        0.0103
     27 C          60.3586   92.9960   -0.1675 C.2     1  UNL1        0.2462
     28 O          60.1317   91.5287   -0.3810 O.2     1  UNL1       -0.2702
     29 N          59.2046   93.9516   -0.2389 N.am    1  UNL1       -0.2738
     30 C          59.4315   95.4189   -0.0254 C.3     1  UNL1        0.0760
     31 C          59.7756   96.5614    0.8835 C.3     1  UNL1        0.0215
     32 C          59.4804   96.8177   -0.5646 C.3     1  UNL1        0.0215
     33 C          57.8237   93.4399   -0.5239 C.3     1  UNL1        0.1212
     34 C          57.0383   94.0003   -1.6724 C.ar    1  UNL1        0.0091
     35 C          56.0740   95.1262   -1.4431 C.ar    1  UNL1       -0.0017
     36 C          55.2887   95.6866   -2.5916 C.ar    1  UNL1        0.0007
     37 C          55.4676   95.1212   -3.9693 C.ar    1  UNL1        0.0122
     38 C          56.4318   93.9954   -4.1986 C.ar    1  UNL1        0.0679
     39 CL         56.6107   93.4300   -5.5765 Cl      1  UNL1       -0.0814
     40 C          57.2172   93.4349   -3.0502 C.ar    1  UNL1        0.0658
     41 CL         58.1815   92.3090   -3.2795 Cl      1  UNL1       -0.0816
@<TRIPOS>BOND
     1    18    19    1
     2    19    20   ar
     3    20    21   ar
     4    21    22    1
     5    21    23   ar
     6    23    17    1
     7    17    16    1
     8    16    15    1
     9    15    14    1
    10    14     8    1
    11     8     9   ar
    12     9    10   ar
    13    10    11   ar
    14    11     1    1
    15     1     2    2
    16     2    27    1
    17    27    28    2
    18    27    29   am
    19    29    33    1
    20    33    34    1
    21    34    35   ar
    22    35    36   ar
    23    36    37   ar
    24    37    38   ar
    25    38    39    1
    26    38    40   ar
    27    40    41    1
    28    29    30    1
    29    30    31    1
    30    31    32    1
    31     2     3    1
    32     3     4    1
    33     4     5    1
    34     5     6    1
    35    11    12   ar
    36    12    13   ar
    37    23    24   ar
    38    24    25    1
    39    24    26   ar
    40    26    19   ar
    41    13     8   ar
    42     6     1    1
    43    40    34   ar
    44    32    30    1
    45     4     7    1
@<TRIPOS>MOLECULE
*****
 41 45 0 0 0
SMALL
GASTEIGER

@<TRIPOS>ATOM
      1 C          61.3014   87.7593    9.8032 C.2     1  UNL1       -0.0191
      2 C          61.5714   88.8460   10.8012 C.2     1  UNL1        0.0433
      3 C          60.8980   90.1788   10.6594 C.3     1  UNL1        0.0999
      4 N          59.9546   90.4249    9.5195 N.3     1  UNL1       -0.2933
      5 C          59.6845   89.3382    8.5214 C.3     1  UNL1        0.0735
      6 C          60.3579   88.0053    8.6633 C.3     1  UNL1        0.0433
      7 H          60.3247   91.2191    8.9972 H       1  UNL1        0.1236
      8 C          63.3215   83.7608   10.2287 C.ar    1  UNL1        0.1387
      9 C          62.4004   84.2540   11.3049 C.ar    1  UNL1        0.0369
     10 C          61.7270   85.5868   11.1631 C.ar    1  UNL1        0.0028
     11 C          61.9747   86.4264    9.9451 C.ar    1  UNL1       -0.0038
     12 C          62.8959   85.9332    8.8688 C.ar    1  UNL1        0.0028
     13 C          63.5693   84.6004    9.0106 C.ar    1  UNL1        0.0369
     14 O          63.9949   82.4279   10.3706 O.3     1  UNL1       -0.4714
     15 C          63.4418   81.4053   11.3184 C.3     1  UNL1        0.2525
     16 C          63.7820   81.4737   12.7777 C.3     1  UNL1        0.2525
     17 O          64.6161   82.6053   13.3011 O.3     1  UNL1       -0.4697
     18 C          62.3443   86.3670   17.3862 C.3     1  UNL1        0.0311
     19 C          62.9122   85.4266   16.3649 C.ar    1  UNL1       -0.0200
     20 C          64.2846   85.6639   15.8080 C.ar    1  UNL1        0.0103
     21 C          64.8526   84.7235   14.7868 C.ar    1  UNL1        0.0921
     22 CL         66.2250   84.9609   14.2299 Cl      1  UNL1       -0.0791
     23 C          64.0481   83.5457   14.3224 C.ar    1  UNL1        0.1596
     24 C          62.6757   83.3084   14.8793 C.ar    1  UNL1        0.0921
     25 CL         61.8712   82.1306   14.4149 Cl      1  UNL1       -0.0791
     26 C          62.1078   84.2488   15.9006 C.ar    1  UNL1        0.0103
     27 C          62.5149   88.5999   11.9412 C.2     1  UNL1        0.2462
     28 O          62.3666   87.3686   12.7850 O.2     1  UNL1       -0.2702
     29 N          63.6065   89.5850   12.2373 N.am    1  UNL1       -0.2738
     30 C          63.7547   90.8163   11.3935 C.3     1  UNL1        0.0760
     31 C          64.2371   92.2269   11.2274 C.3     1  UNL1        0.0215
     32 C          63.5292   91.5384   10.0983 C.3     1  UNL1        0.0215
     33 C          64.5499   89.3389   13.3772 C.3     1  UNL1        0.1212
     34 C          64.6374   90.3246   14.5045 C.ar    1  UNL1        0.0091
     35 C          63.6081   90.3097   15.5955 C.ar    1  UNL1       -0.0017
     36 C          63.6956   91.2953   16.7228 C.ar    1  UNL1        0.0007
     37 C          64.8125   92.2959   16.7591 C.ar    1  UNL1        0.0122
     38 C          65.8418   92.3109   15.6681 C.ar    1  UNL1        0.0679
     39 CL         66.9587   93.3115   15.7045 Cl      1  UNL1       -0.0814
     40 C          65.7543   91.3252   14.5408 C.ar    1  UNL1        0.0658
     41 CL         66.7837   91.3402   13.4498 Cl      1  UNL1       -0.0816
@<TRIPOS>BOND
     1    18    19    1
     2    19    20   ar
     3    20    21   ar
     4    21    22    1
     5    21    23   ar
     6    23    17    1
     7    17    16    1
     8    16    15    1
     9    15    14    1
    10    14     8    1
    11     8     9   ar
    12     9    10   ar
    13    10    11   ar
    14    11     1    1
    15     1     2    2
    16     2    27    1
    17    27    28    2
    18    27    29   am
    19    29    33    1
    20    33    34    1
    21    34    35   ar
    22    35    36   ar
    23    36    37   ar
    24    37    38   ar
    25    38    39    1
    26    38    40   ar
    27    40    41    1
    28    29    30    1
    29    30    31    1
    30    31    32    1
    31     2     3    1
    32     3     4    1
    33     4     5    1
    34     5     6    1
    35    11    12   ar
    36    12    13   ar
    37    23    24   ar
    38    24    25    1
    39    24    26   ar
    40    26    19   ar
    41    13     8   ar
    42     6     1    1
    43    40    34   ar
    44    32    30    1
    45     4     7    1
