@<TRIPOS>MOLECULE
*****
 31 34 0 0 0
SMALL
GASTEIGER

@<TRIPOS>ATOM
      1 C          63.7733   95.3115   -1.1234 C.ar    1  UNL1        0.1056
      2 C          62.3186   95.6773   -1.1118 C.ar    1  UNL1        0.0214
      3 C          61.3940   95.0442   -0.1147 C.ar    1  UNL1        0.0379
      4 C          61.9240   94.0453    0.8709 C.ar    1  UNL1        0.1342
      5 C          63.3787   93.6795    0.8593 C.ar    1  UNL1        0.0132
      6 C          64.3033   94.3126   -0.1379 C.ar    1  UNL1        0.0171
      7 C          63.9087   92.6807    1.8448 C.3     1  UNL1        0.0330
      8 C          62.9841   92.0476    2.8420 C.3     1  UNL1        0.0449
      9 C          61.5294   92.4134    2.8536 C.3     1  UNL1        0.1367
     10 C          62.0595   91.4146    3.8391 C.3     1  UNL1        0.0616
     11 C          61.1349   90.7815    4.8363 C.3     1  UNL1        0.0973
     12 N          59.6802   91.1473    4.8479 N.am    1  UNL1       -0.2758
     13 C          58.7556   90.5142    5.8451 C.2     1  UNL1        0.2490
     14 O          57.3009   90.8801    5.8566 O.2     1  UNL1       -0.2699
     15 C          59.1501   92.1462    3.8623 C.3     1  UNL1        0.0973
     16 C          60.0748   92.7792    2.8652 C.3     1  UNL1        0.0616
     17 O          60.9994   93.4123    1.8680 O.3     1  UNL1       -0.4828
     18 C          59.2856   89.5154    6.8306 C.ar    1  UNL1        0.0536
     19 C          60.0328   89.9831    8.0442 C.ar    1  UNL1        0.0045
     20 C          60.5629   88.9842    9.0298 C.ar    1  UNL1        0.0040
     21 C          60.3457   87.5176    8.8017 C.ar    1  UNL1        0.0714
     22 C          59.5985   87.0499    7.5880 C.ar    1  UNL1        0.0040
     23 C          59.0684   88.0488    6.6025 C.ar    1  UNL1        0.0045
     24 C          60.8758   86.5188    9.7872 C.3     1  UNL1        0.4186
     25 F          61.4058   85.5199   10.7728 F       1  UNL1       -0.1659
     26 F          61.5415   85.7704    8.6707 F       1  UNL1       -0.1659
     27 F          60.2100   87.2671   10.9037 F       1  UNL1       -0.1659
     28 C          65.6225   96.5776   -3.1178 C.3     1  UNL1        0.1816
     29 S          64.6979   95.9445   -2.1206 S.O2    1  UNL1        0.0104
     30 O          65.7595   96.0542   -1.0665 O.2     1  UNL1       -0.1686
     31 O          63.6363   95.8348   -3.1746 O.2     1  UNL1       -0.1686
@<TRIPOS>BOND
     1    28    29    1
     2    29    30    2
     3    29    31    2
     4    29     1    1
     5     1     2   ar
     6     2     3   ar
     7     3     4   ar
     8     4     5   ar
     9     5     6   ar
    10     5     7    1
    11     7     8    1
    12     8     9    1
    13     9    10    1
    14    10    11    1
    15    11    12    1
    16    12    13   am
    17    13    14    2
    18    13    18    1
    19    18    19   ar
    20    19    20   ar
    21    20    21   ar
    22    21    24    1
    23    24    25    1
    24    24    26    1
    25    24    27    1
    26    21    22   ar
    27    22    23   ar
    28    12    15    1
    29    15    16    1
    30     9    17    1
    31     6     1   ar
    32    16     9    1
    33    17     4    1
    34    23    18   ar
