@<TRIPOS>MOLECULE
*****
 39 42 0 0 0
SMALL
GASTEIGER

@<TRIPOS>ATOM
      1 C          64.0960   90.1709   15.0623 C.3     1  UNL1        0.1532
      2 N          66.3002   91.4833   14.6514 N.am    1  UNL1       -0.2945
      3 C          64.9774   91.3510   15.3461 C.2     1  UNL1        0.2413
      4 O          64.5360   92.3986   16.3247 O.2     1  UNL1       -0.2733
      5 H          66.5899   90.7957   14.0092 H       1  UNL1        0.1503
      6 C          67.1816   92.6634   14.9353 C.3     1  UNL1        0.1365
      7 C          68.2253   93.5176   15.5917 C.3     1  UNL1        0.0353
      8 C          67.9551   92.1349   16.1068 C.3     1  UNL1        0.0353
      9 N          66.2469   94.5400   12.7894 N.1     1  UNL1       -0.1943
     10 C          66.7143   93.6016   13.8624 C.1     1  UNL1        0.0896
     11 N          63.7468   89.8189   13.6466 N.am    1  UNL1       -0.2932
     12 C          62.3097   89.6664   13.2443 C.2     1  UNL1        0.2673
     13 O          61.2220   89.8658   14.2577 O.2     1  UNL1       -0.2684
     14 H          64.4607   89.6880   12.9815 H       1  UNL1        0.1502
     15 C          61.9605   89.3144   11.8286 C.ar    1  UNL1        0.1767
     16 C          61.4710   90.2669   10.7783 C.ar    1  UNL1        0.1476
     17 N          61.2475   89.4893    9.5152 N.ar    1  UNL1       -0.1445
     18 N          61.5989   88.0562    9.7849 N.ar    1  UNL1       -0.1462
     19 N          62.0396   87.9480   11.2146 N.ar    1  UNL1       -0.1417
     20 C          61.5229   86.9290    8.7981 C.ar    1  UNL1        0.1221
     21 C          62.7219   86.0601    8.5582 C.ar    1  UNL1        0.0264
     22 C          62.6459   84.9329    7.5714 C.ar    1  UNL1        0.0513
     23 C          61.3710   84.6748    6.8245 C.ar    1  UNL1        0.2224
     24 F          61.2950   83.5476    5.8376 F       1  UNL1       -0.1832
     25 N          60.1721   85.5437    7.0643 N.ar    1  UNL1       -0.2148
     26 C          60.2480   86.6708    8.0511 C.ar    1  UNL1        0.1221
     27 C          63.5637   89.3429   16.1941 C.3     1  UNL1        0.0553
     28 C          63.5279   87.8478   16.0775 C.ar    1  UNL1       -0.0190
     29 C          62.6758   87.0427   17.0133 C.ar    1  UNL1       -0.0010
     30 C          62.6400   85.5477   16.8966 C.ar    1  UNL1        0.0377
     31 C          63.4563   84.8578   15.8441 C.ar    1  UNL1        0.1572
     32 C          64.3084   85.6629   14.9083 C.ar    1  UNL1        0.0915
     33 CL         65.1247   84.9729   13.8559 Cl      1  UNL1       -0.0791
     34 C          64.3442   87.1578   15.0250 C.ar    1  UNL1        0.0103
     35 O          63.4204   83.3627   15.7275 O.3     1  UNL1       -0.4036
     36 C          62.7531   82.7182   14.5489 C.3     1  UNL1        0.5753
     37 F          62.0857   82.0735   13.3703 F       1  UNL1       -0.1328
     38 F          63.9284   81.8008   14.3851 F       1  UNL1       -0.1328
     39 F          61.5777   83.6355   14.7128 F       1  UNL1       -0.1328
@<TRIPOS>BOND
     1     9    10    3
     2    10     6    1
     3     6     2    1
     4     2     3   am
     5     3     4    2
     6     3     1    1
     7     1    27    1
     8    27    28    1
     9    28    29   ar
    10    29    30   ar
    11    30    31   ar
    12    31    35    1
    13    35    36    1
    14    36    37    1
    15    36    38    1
    16    36    39    1
    17    31    32   ar
    18    32    33    1
    19    32    34   ar
    20     1    11    1
    21    11    12   am
    22    12    13    2
    23    12    15    1
    24    15    16   ar
    25    16    17   ar
    26    17    18   ar
    27    18    20    1
    28    20    21   ar
    29    21    22   ar
    30    22    23   ar
    31    23    24    1
    32    23    25   ar
    33    25    26   ar
    34    18    19   ar
    35     6     7    1
    36     7     8    1
    37     8     6    1
    38    34    28   ar
    39    19    15   ar
    40    26    20   ar
    41     2     5    1
    42    11    14    1
@<TRIPOS>MOLECULE
*****
 39 42 0 0 0
SMALL
GASTEIGER

@<TRIPOS>ATOM
      1 C          60.7874   88.8076    9.3245 C.3     1  UNL1        0.1532
      2 N          62.8050   89.4777   10.8180 N.am    1  UNL1       -0.2945
      3 C          61.3251   89.3297   10.6240 C.2     1  UNL1        0.2413
      4 O          60.3826   89.7038   11.7293 O.2     1  UNL1       -0.2733
      5 H          63.4236   89.2322   10.0925 H       1  UNL1        0.1503
      6 C          63.3426   89.9998   12.1173 C.3     1  UNL1        0.1365
      7 C          63.8162   90.9699   13.1587 C.3     1  UNL1        0.0353
      8 C          63.3453   91.4712   11.8256 C.3     1  UNL1        0.0353
      9 N          63.7104   87.4198   13.6033 N.1     1  UNL1       -0.1943
     10 C          63.5265   88.7098   12.8603 C.1     1  UNL1        0.0896
     11 N          60.6124   89.7349    8.1586 N.am    1  UNL1       -0.2932
     12 C          59.5307   89.4778    7.1516 C.2     1  UNL1        0.2673
     13 O          58.6241   88.2934    7.3106 O.2     1  UNL1       -0.2684
     14 H          61.2074   90.5123    8.0542 H       1  UNL1        0.1502
     15 C          59.3556   90.4051    5.9857 C.ar    1  UNL1        0.1767
     16 C          58.0573   90.9835    5.5064 C.ar    1  UNL1        0.1476
     17 N          58.3474   91.8528    4.3188 N.ar    1  UNL1       -0.1445
     18 N          59.8250   91.8115    4.0641 N.ar    1  UNL1       -0.1462
     19 N          60.4482   90.9168    5.0943 N.ar    1  UNL1       -0.1417
     20 C          60.5519   92.5375    2.9712 C.ar    1  UNL1        0.1221
     21 C          62.0298   92.3474    2.7985 C.ar    1  UNL1        0.0264
     22 C          62.7567   93.0733    1.7055 C.ar    1  UNL1        0.0513
     23 C          62.0058   93.9895    0.7853 C.ar    1  UNL1        0.2224
     24 F          62.7327   94.7155   -0.3077 F       1  UNL1       -0.1832
     25 N          60.5279   94.1796    0.9581 N.ar    1  UNL1       -0.2148
     26 C          59.8010   93.4536    2.0510 C.ar    1  UNL1        0.1221
     27 C          60.4249   87.3582    9.1911 C.3     1  UNL1        0.0553
     28 C          61.4076   86.2990    9.5946 C.ar    1  UNL1       -0.0190
     29 C          62.3209   85.6939    8.5702 C.ar    1  UNL1       -0.0010
     30 C          63.3035   84.6348    8.9737 C.ar    1  UNL1        0.0377
     31 C          63.3727   84.1809   10.4017 C.ar    1  UNL1        0.1572
     32 C          62.4594   84.7861   11.4261 C.ar    1  UNL1        0.0915
     33 CL         62.5286   84.3322   12.8541 Cl      1  UNL1       -0.0791
     34 C          61.4768   85.8451   11.0226 C.ar    1  UNL1        0.0103
     35 O          64.3553   83.1218   10.8052 O.3     1  UNL1       -0.4036
     36 C          63.8835   81.9009   11.5377 C.3     1  UNL1        0.5753
     37 F          63.4116   80.6799   12.2704 F       1  UNL1       -0.1328
     38 F          64.7691   82.2534   12.6958 F       1  UNL1       -0.1328
     39 F          62.9978   81.5483   10.3797 F       1  UNL1       -0.1328
@<TRIPOS>BOND
     1     9    10    3
     2    10     6    1
     3     6     2    1
     4     2     3   am
     5     3     4    2
     6     3     1    1
     7     1    27    1
     8    27    28    1
     9    28    29   ar
    10    29    30   ar
    11    30    31   ar
    12    31    35    1
    13    35    36    1
    14    36    37    1
    15    36    38    1
    16    36    39    1
    17    31    32   ar
    18    32    33    1
    19    32    34   ar
    20     1    11    1
    21    11    12   am
    22    12    13    2
    23    12    15    1
    24    15    16   ar
    25    16    17   ar
    26    17    18   ar
    27    18    20    1
    28    20    21   ar
    29    21    22   ar
    30    22    23   ar
    31    23    24    1
    32    23    25   ar
    33    25    26   ar
    34    18    19   ar
    35     6     7    1
    36     7     8    1
    37     8     6    1
    38    34    28   ar
    39    19    15   ar
    40    26    20   ar
    41     2     5    1
    42    11    14    1
@<TRIPOS>MOLECULE
*****
 39 42 0 0 0
SMALL
GASTEIGER

@<TRIPOS>ATOM
      1 C          62.4397   87.6521   12.2085 C.3     1  UNL1        0.1532
      2 N          62.4503   85.0550   12.1357 N.am    1  UNL1       -0.2945
      3 C          62.9708   86.3407   12.7068 C.2     1  UNL1        0.2413
      4 O          64.0222   86.3150   13.7763 O.2     1  UNL1       -0.2733
      5 H          61.7602   85.0719   11.4338 H       1  UNL1        0.1503
      6 C          62.9814   83.7437   12.6340 C.3     1  UNL1        0.1365
      7 C          63.2186   82.5715   13.5393 C.3     1  UNL1        0.0353
      8 C          62.3197   83.6890   13.9791 C.3     1  UNL1        0.0353
      9 N          64.6736   82.9423   10.2900 N.1     1  UNL1       -0.1943
     10 C          63.8274   83.3430   11.4620 C.1     1  UNL1        0.0896
     11 N          63.3618   88.8253   12.0558 N.am    1  UNL1       -0.2932
     12 C          63.3788   89.9062   13.0957 C.2     1  UNL1        0.2673
     13 O          62.4737   89.8139   14.2883 O.2     1  UNL1       -0.2684
     14 H          63.9558   88.8859   11.2731 H       1  UNL1        0.1502
     15 C          64.3009   91.0794   12.9430 C.ar    1  UNL1        0.1767
     16 C          65.0805   91.7371   14.0428 C.ar    1  UNL1        0.1476
     17 N          65.8667   92.8651   13.4432 N.ar    1  UNL1       -0.1445
     18 N          65.5730   92.9046   11.9728 N.ar    1  UNL1       -0.1462
     19 N          64.6052   91.8010   11.6636 N.ar    1  UNL1       -0.1417
     20 C          66.1463   93.8769   10.9849 C.ar    1  UNL1        0.1221
     21 C          66.9824   93.3805    9.8427 C.ar    1  UNL1        0.0264
     22 C          67.5558   94.3528    8.8549 C.ar    1  UNL1        0.0513
     23 C          67.2929   95.8215    9.0091 C.ar    1  UNL1        0.2224
     24 F          67.8662   96.7939    8.0212 F       1  UNL1       -0.1832
     25 N          66.4567   96.3179   10.1513 N.ar    1  UNL1       -0.2148
     26 C          65.8834   95.3456   11.1391 C.ar    1  UNL1        0.1221
     27 C          60.9866   87.7902   11.8630 C.3     1  UNL1        0.0553
     28 C          60.5760   88.0787   10.4494 C.ar    1  UNL1       -0.0190
     29 C          60.4516   89.4977    9.9793 C.ar    1  UNL1       -0.0010
     30 C          60.0409   89.7861    8.5657 C.ar    1  UNL1        0.0377
     31 C          59.7547   88.6556    7.6223 C.ar    1  UNL1        0.1572
     32 C          59.8791   87.2367    8.0924 C.ar    1  UNL1        0.0915
     33 CL         59.5929   86.1062    7.1490 Cl      1  UNL1       -0.0791
     34 C          60.2897   86.9482    9.5060 C.ar    1  UNL1        0.0103
     35 O          59.3440   88.9441    6.2087 O.3     1  UNL1       -0.4036
     36 C          59.1458   90.3615    5.7597 C.3     1  UNL1        0.5753
     37 F          58.9476   91.7790    5.3107 F       1  UNL1       -0.1328
     38 F          60.5875   90.4341    5.3523 F       1  UNL1       -0.1328
     39 F          57.7040   90.2889    6.1671 F       1  UNL1       -0.1328
@<TRIPOS>BOND
     1     9    10    3
     2    10     6    1
     3     6     2    1
     4     2     3   am
     5     3     4    2
     6     3     1    1
     7     1    27    1
     8    27    28    1
     9    28    29   ar
    10    29    30   ar
    11    30    31   ar
    12    31    35    1
    13    35    36    1
    14    36    37    1
    15    36    38    1
    16    36    39    1
    17    31    32   ar
    18    32    33    1
    19    32    34   ar
    20     1    11    1
    21    11    12   am
    22    12    13    2
    23    12    15    1
    24    15    16   ar
    25    16    17   ar
    26    17    18   ar
    27    18    20    1
    28    20    21   ar
    29    21    22   ar
    30    22    23   ar
    31    23    24    1
    32    23    25   ar
    33    25    26   ar
    34    18    19   ar
    35     6     7    1
    36     7     8    1
    37     8     6    1
    38    34    28   ar
    39    19    15   ar
    40    26    20   ar
    41     2     5    1
    42    11    14    1
@<TRIPOS>MOLECULE
*****
 39 42 0 0 0
SMALL
GASTEIGER

@<TRIPOS>ATOM
      1 C          62.8591   88.4539   12.2059 C.3     1  UNL1        0.1532
      2 N          62.5683   85.8753   12.0789 N.am    1  UNL1       -0.2945
      3 C          63.1947   87.0823   12.7120 C.2     1  UNL1        0.2413
      4 O          64.1566   86.9177   13.8511 O.2     1  UNL1       -0.2733
      5 H          61.9370   85.9833   11.3312 H       1  UNL1        0.1503
      6 C          62.9039   84.5037   12.5849 C.3     1  UNL1        0.1365
      7 C          63.4103   83.0919   12.6005 C.3     1  UNL1        0.0353
      8 C          63.5123   83.9115   11.3483 C.3     1  UNL1        0.0353
      9 N          61.9202   84.7354   15.4096 N.1     1  UNL1       -0.1943
     10 C          62.4121   84.6196   13.9972 C.1     1  UNL1        0.0896
     11 N          62.2716   88.6252   10.8364 N.am    1  UNL1       -0.2932
     12 C          60.8165   88.3441   10.6041 C.2     1  UNL1        0.2673
     13 O          59.9491   87.8919   11.7411 O.2     1  UNL1       -0.2684
     14 H          62.8409   88.9220   10.0901 H       1  UNL1        0.1502
     15 C          60.2290   88.5153    9.2346 C.ar    1  UNL1        0.1767
     16 C          59.3843   87.5126    8.5059 C.ar    1  UNL1        0.1476
     17 N          59.0163   88.0968    7.1743 N.ar    1  UNL1       -0.1445
     18 N          59.6335   89.4607    7.0800 N.ar    1  UNL1       -0.1462
     19 N          60.3830   89.7194    8.3533 N.ar    1  UNL1       -0.1417
     20 C          59.5210   90.4009    5.9166 C.ar    1  UNL1        0.1221
     21 C          60.7507   90.8103    5.1615 C.ar    1  UNL1        0.0264
     22 C          60.6382   91.7505    3.9981 C.ar    1  UNL1        0.0513
     23 C          59.2959   92.2813    3.5900 C.ar    1  UNL1        0.2224
     24 F          59.1834   93.2215    2.4266 F       1  UNL1       -0.1832
     25 N          58.0662   91.8719    4.3451 N.ar    1  UNL1       -0.2148
     26 C          58.1787   90.9317    5.5085 C.ar    1  UNL1        0.1221
     27 C          63.1110   89.6543   13.0694 C.3     1  UNL1        0.0553
     28 C          64.0540   90.7257   12.6077 C.ar    1  UNL1       -0.0190
     29 C          63.9155   91.3043   11.2308 C.ar    1  UNL1       -0.0010
     30 C          64.8584   92.3757   10.7692 C.ar    1  UNL1        0.0377
     31 C          65.9398   92.8684   11.6845 C.ar    1  UNL1        0.1572
     32 C          66.0782   92.2898   13.0615 C.ar    1  UNL1        0.0915
     33 CL         67.1596   92.7826   13.9768 Cl      1  UNL1       -0.0791
     34 C          65.1353   91.2185   13.5231 C.ar    1  UNL1        0.0103
     35 O          66.8827   93.9398   11.2229 O.3     1  UNL1       -0.4036
     36 C          67.3159   93.9902    9.7877 C.3     1  UNL1        0.5753
     37 F          67.7490   94.0407    8.3524 F       1  UNL1       -0.1328
     38 F          66.5780   95.2841    9.6105 F       1  UNL1       -0.1328
     39 F          68.0538   92.6964    9.9649 F       1  UNL1       -0.1328
@<TRIPOS>BOND
     1     9    10    3
     2    10     6    1
     3     6     2    1
     4     2     3   am
     5     3     4    2
     6     3     1    1
     7     1    27    1
     8    27    28    1
     9    28    29   ar
    10    29    30   ar
    11    30    31   ar
    12    31    35    1
    13    35    36    1
    14    36    37    1
    15    36    38    1
    16    36    39    1
    17    31    32   ar
    18    32    33    1
    19    32    34   ar
    20     1    11    1
    21    11    12   am
    22    12    13    2
    23    12    15    1
    24    15    16   ar
    25    16    17   ar
    26    17    18   ar
    27    18    20    1
    28    20    21   ar
    29    21    22   ar
    30    22    23   ar
    31    23    24    1
    32    23    25   ar
    33    25    26   ar
    34    18    19   ar
    35     6     7    1
    36     7     8    1
    37     8     6    1
    38    34    28   ar
    39    19    15   ar
    40    26    20   ar
    41     2     5    1
    42    11    14    1
@<TRIPOS>MOLECULE
*****
 39 42 0 0 0
SMALL
GASTEIGER

@<TRIPOS>ATOM
      1 C          62.7012   88.3983   12.2990 C.3     1  UNL1        0.1532
      2 N          62.6665   85.8022   12.2034 N.am    1  UNL1       -0.2945
      3 C          63.1983   87.0733   12.7963 C.2     1  UNL1        0.2413
      4 O          64.2271   87.0193   13.8866 O.2     1  UNL1       -0.2733
      5 H          61.9913   85.8376   11.4878 H       1  UNL1        0.1503
      6 C          63.1636   84.4773   12.7006 C.3     1  UNL1        0.1365
      7 C          63.8342   83.1355   12.7070 C.3     1  UNL1        0.0353
      8 C          63.8358   83.9689   11.4598 C.3     1  UNL1        0.0353
      9 N          62.1643   84.5736   15.5277 N.1     1  UNL1       -0.1943
     10 C          62.6640   84.5254   14.1141 C.1     1  UNL1        0.0896
     11 N          62.1904   88.5287   10.8947 N.am    1  UNL1       -0.2932
     12 C          60.7158   88.4753   10.6251 C.2     1  UNL1        0.2673
     13 O          59.7520   88.2914   11.7596 O.2     1  UNL1       -0.2684
     14 H          62.8230   88.6494   10.1501 H       1  UNL1        0.1502
     15 C          60.2050   88.6057    9.2207 C.ar    1  UNL1        0.1767
     16 C          59.4932   87.5416    8.4391 C.ar    1  UNL1        0.1476
     17 N          59.1646   88.1013    7.0868 N.ar    1  UNL1       -0.1445
     18 N          59.6733   89.5113    7.0326 N.ar    1  UNL1       -0.1462
     19 N          60.3163   89.8231    8.3515 N.ar    1  UNL1       -0.1417
     20 C          59.5591   90.4457    5.8647 C.ar    1  UNL1        0.1221
     21 C          60.7826   90.8218    5.0827 C.ar    1  UNL1        0.0264
     22 C          60.6684   91.7561    3.9148 C.ar    1  UNL1        0.0513
     23 C          59.3307   92.3143    3.5289 C.ar    1  UNL1        0.2224
     24 F          59.2164   93.2487    2.3610 F       1  UNL1       -0.1832
     25 N          58.1072   91.9382    4.3110 N.ar    1  UNL1       -0.2148
     26 C          58.2214   91.0039    5.4789 C.ar    1  UNL1        0.1221
     27 C          62.7150   89.5929   13.2061 C.3     1  UNL1        0.0553
     28 C          63.9514   90.4348   13.3188 C.ar    1  UNL1       -0.0190
     29 C          64.8838   90.2465   14.4786 C.ar    1  UNL1       -0.0010
     30 C          66.1201   91.0884   14.5914 C.ar    1  UNL1        0.0377
     31 C          66.4240   92.1186   13.5443 C.ar    1  UNL1        0.1572
     32 C          65.4916   92.3069   12.3845 C.ar    1  UNL1        0.0915
     33 CL         65.7955   93.3371   11.3375 Cl      1  UNL1       -0.0791
     34 C          64.2553   91.4650   12.2718 C.ar    1  UNL1        0.0103
     35 O          67.6604   92.9605   13.6571 O.3     1  UNL1       -0.4036
     36 C          68.4289   92.9957   14.9448 C.3     1  UNL1        0.5753
     37 F          69.1974   93.0309   16.2325 F       1  UNL1       -0.1328
     38 F          69.5315   92.2025   14.3084 F       1  UNL1       -0.1328
     39 F          67.3262   93.7888   15.5811 F       1  UNL1       -0.1328
@<TRIPOS>BOND
     1     9    10    3
     2    10     6    1
     3     6     2    1
     4     2     3   am
     5     3     4    2
     6     3     1    1
     7     1    27    1
     8    27    28    1
     9    28    29   ar
    10    29    30   ar
    11    30    31   ar
    12    31    35    1
    13    35    36    1
    14    36    37    1
    15    36    38    1
    16    36    39    1
    17    31    32   ar
    18    32    33    1
    19    32    34   ar
    20     1    11    1
    21    11    12   am
    22    12    13    2
    23    12    15    1
    24    15    16   ar
    25    16    17   ar
    26    17    18   ar
    27    18    20    1
    28    20    21   ar
    29    21    22   ar
    30    22    23   ar
    31    23    24    1
    32    23    25   ar
    33    25    26   ar
    34    18    19   ar
    35     6     7    1
    36     7     8    1
    37     8     6    1
    38    34    28   ar
    39    19    15   ar
    40    26    20   ar
    41     2     5    1
    42    11    14    1
@<TRIPOS>MOLECULE
*****
 39 42 0 0 0
SMALL
GASTEIGER

@<TRIPOS>ATOM
      1 C          62.0596   90.0292   10.1912 C.3     1  UNL1        0.1532
      2 N          60.8696   89.3820    7.9742 N.am    1  UNL1       -0.2945
      3 C          60.8197   89.9814    9.3483 C.2     1  UNL1        0.2413
      4 O          59.5299   90.5331    9.8795 O.2     1  UNL1       -0.2733
      5 H          61.7161   89.0199    7.6255 H       1  UNL1        0.1503
      6 C          59.6297   89.3342    7.1314 C.3     1  UNL1        0.1365
      7 C          58.5938   89.7366    6.1239 C.3     1  UNL1        0.0353
      8 C          59.7865   90.6139    6.3646 C.3     1  UNL1        0.0353
      9 N          58.4548   86.7417    8.0794 N.1     1  UNL1       -0.1943
     10 C          59.0423   88.0380    7.6054 C.1     1  UNL1        0.0896
     11 N          62.3421   88.9306   11.1726 N.am    1  UNL1       -0.2932
     12 C          62.3586   87.5021   10.7150 C.2     1  UNL1        0.2673
     13 O          62.0927   87.1723    9.2761 O.2     1  UNL1       -0.2684
     14 H          62.5166   89.1470   12.1170 H       1  UNL1        0.1502
     15 C          62.6411   86.4034   11.6964 C.ar    1  UNL1        0.1767
     16 C          63.2909   86.5657   13.0386 C.ar    1  UNL1        0.1476
     17 N          63.3748   85.2122   13.6797 N.ar    1  UNL1       -0.1445
     18 N          62.7769   84.2134   12.7337 N.ar    1  UNL1       -0.1462
     19 N          62.3235   84.9496   11.5079 N.ar    1  UNL1       -0.1417
     20 C          62.6540   82.7375   12.9716 C.ar    1  UNL1        0.1221
     21 C          62.8836   81.7744   11.8447 C.ar    1  UNL1        0.0264
     22 C          62.7607   80.2985   12.0826 C.ar    1  UNL1        0.0513
     23 C          62.4083   79.7857   13.4474 C.ar    1  UNL1        0.2224
     24 F          62.2854   78.3097   13.6853 F       1  UNL1       -0.1832
     25 N          62.1787   80.7487   14.5743 N.ar    1  UNL1       -0.2148
     26 C          62.3016   82.2246   14.3364 C.ar    1  UNL1        0.1221
     27 C          63.0169   91.1756   10.0527 C.3     1  UNL1        0.0553
     28 C          63.8846   91.5722   11.2102 C.ar    1  UNL1       -0.0190
     29 C          64.9843   92.5734   11.0148 C.ar    1  UNL1       -0.0010
     30 C          65.8519   92.9700   12.1723 C.ar    1  UNL1        0.0377
     31 C          65.6199   92.3654   13.5253 C.ar    1  UNL1        0.1572
     32 C          64.5202   91.3642   13.7207 C.ar    1  UNL1        0.0915
     33 CL         64.2882   90.7595   15.0737 Cl      1  UNL1       -0.0791
     34 C          63.6526   90.9676   12.5632 C.ar    1  UNL1        0.0103
     35 O          66.4876   92.7620   14.6828 O.3     1  UNL1       -0.4036
     36 C          67.9764   92.6029   14.5932 C.3     1  UNL1        0.5753
     37 F          69.4653   92.4438   14.5036 F       1  UNL1       -0.1328
     38 F          68.1590   93.8988   15.3261 F       1  UNL1       -0.1328
     39 F          67.7938   91.3070   13.8603 F       1  UNL1       -0.1328
@<TRIPOS>BOND
     1     9    10    3
     2    10     6    1
     3     6     2    1
     4     2     3   am
     5     3     4    2
     6     3     1    1
     7     1    27    1
     8    27    28    1
     9    28    29   ar
    10    29    30   ar
    11    30    31   ar
    12    31    35    1
    13    35    36    1
    14    36    37    1
    15    36    38    1
    16    36    39    1
    17    31    32   ar
    18    32    33    1
    19    32    34   ar
    20     1    11    1
    21    11    12   am
    22    12    13    2
    23    12    15    1
    24    15    16   ar
    25    16    17   ar
    26    17    18   ar
    27    18    20    1
    28    20    21   ar
    29    21    22   ar
    30    22    23   ar
    31    23    24    1
    32    23    25   ar
    33    25    26   ar
    34    18    19   ar
    35     6     7    1
    36     7     8    1
    37     8     6    1
    38    34    28   ar
    39    19    15   ar
    40    26    20   ar
    41     2     5    1
    42    11    14    1
@<TRIPOS>MOLECULE
*****
 39 42 0 0 0
SMALL
GASTEIGER

@<TRIPOS>ATOM
      1 C          62.7859   87.9191   12.4628 C.3     1  UNL1        0.1532
      2 N          62.6293   85.3265   12.4001 N.am    1  UNL1       -0.2945
      3 C          63.2243   86.5785   12.9733 C.2     1  UNL1        0.2413
      4 O          64.2577   86.4899   14.0569 O.2     1  UNL1       -0.2733
      5 H          61.9511   85.3847   11.6889 H       1  UNL1        0.1503
      6 C          63.0677   83.9859   12.9106 C.3     1  UNL1        0.1365
      7 C          63.2157   82.8047   13.8231 C.3     1  UNL1        0.0353
      8 C          62.3836   83.9791   14.2455 C.3     1  UNL1        0.0353
      9 N          64.7404   83.0684   10.5954 N.1     1  UNL1       -0.1943
     10 C          63.9040   83.5272   11.7530 C.1     1  UNL1        0.0896
     11 N          62.2559   88.0531   11.0659 N.am    1  UNL1       -0.2932
     12 C          60.7843   88.2306   10.8359 C.2     1  UNL1        0.2673
     13 O          59.8427   88.2741   12.0027 O.2     1  UNL1       -0.2684
     14 H          62.8740   88.0246   10.3001 H       1  UNL1        0.1502
     15 C          60.2543   88.3646    9.4390 C.ar    1  UNL1        0.1767
     16 C          59.5602   87.2922    8.6528 C.ar    1  UNL1        0.1476
     17 N          59.2023   87.8593    7.3110 N.ar    1  UNL1       -0.1445
     18 N          59.6753   89.2821    7.2680 N.ar    1  UNL1       -0.1462
     19 N          60.3255   89.5945    8.5832 N.ar    1  UNL1       -0.1417
     20 C          59.5246   90.2268    6.1126 C.ar    1  UNL1        0.1221
     21 C          58.1657   90.7350    5.7316 C.ar    1  UNL1        0.0264
     22 C          58.0150   91.6797    4.5763 C.ar    1  UNL1        0.0513
     23 C          59.2233   92.1163    3.8020 C.ar    1  UNL1        0.2224
     24 F          59.0726   93.0610    2.6466 F       1  UNL1       -0.1832
     25 N          60.5822   91.6081    4.1830 N.ar    1  UNL1       -0.2148
     26 C          60.7329   90.6634    5.3383 C.ar    1  UNL1        0.1221
     27 C          62.8775   89.1257   13.3492 C.3     1  UNL1        0.0553
     28 C          63.8929   90.1919   13.0622 C.ar    1  UNL1       -0.0190
     29 C          64.9818   90.4769   14.0536 C.ar    1  UNL1       -0.0010
     30 C          65.9972   91.5430   13.7666 C.ar    1  UNL1        0.0377
     31 C          65.9236   92.3241   12.4881 C.ar    1  UNL1        0.1572
     32 C          64.8347   92.0391   11.4967 C.ar    1  UNL1        0.0915
     33 CL         64.7611   92.8203   10.2183 Cl      1  UNL1       -0.0791
     34 C          63.8193   90.9730   11.7837 C.ar    1  UNL1        0.0103
     35 O          66.9390   93.3903   12.2011 O.3     1  UNL1       -0.4036
     36 C          66.5398   94.8357   12.2384 C.3     1  UNL1        0.5753
     37 F          66.1407   96.2812   12.2757 F       1  UNL1       -0.1328
     38 F          66.2413   94.7155   13.7034 F       1  UNL1       -0.1328
     39 F          66.8384   94.9559   10.7733 F       1  UNL1       -0.1328
@<TRIPOS>BOND
     1     9    10    3
     2    10     6    1
     3     6     2    1
     4     2     3   am
     5     3     4    2
     6     3     1    1
     7     1    27    1
     8    27    28    1
     9    28    29   ar
    10    29    30   ar
    11    30    31   ar
    12    31    35    1
    13    35    36    1
    14    36    37    1
    15    36    38    1
    16    36    39    1
    17    31    32   ar
    18    32    33    1
    19    32    34   ar
    20     1    11    1
    21    11    12   am
    22    12    13    2
    23    12    15    1
    24    15    16   ar
    25    16    17   ar
    26    17    18   ar
    27    18    20    1
    28    20    21   ar
    29    21    22   ar
    30    22    23   ar
    31    23    24    1
    32    23    25   ar
    33    25    26   ar
    34    18    19   ar
    35     6     7    1
    36     7     8    1
    37     8     6    1
    38    34    28   ar
    39    19    15   ar
    40    26    20   ar
    41     2     5    1
    42    11    14    1
@<TRIPOS>MOLECULE
*****
 39 42 0 0 0
SMALL
GASTEIGER

@<TRIPOS>ATOM
      1 C          62.3727   85.8223   11.4676 C.3     1  UNL1        0.1532
      2 N          63.1791   83.4609   12.1913 N.am    1  UNL1       -0.2945
      3 C          62.3977   84.7098   12.4735 C.2     1  UNL1        0.2413
      4 O          61.6413   84.8462   13.7616 O.2     1  UNL1       -0.2733
      5 H          63.6755   83.3713   11.3458 H       1  UNL1        0.1503
      6 C          63.2041   82.3485   13.1972 C.3     1  UNL1        0.1365
      7 C          62.9730   81.0013   13.8149 C.3     1  UNL1        0.0353
      8 C          62.4752   81.2861   12.4288 C.3     1  UNL1        0.0353
      9 N          64.6791   83.7004   15.4325 N.1     1  UNL1       -0.1943
     10 C          63.9415   83.0244   14.3148 C.1     1  UNL1        0.0896
     11 N          62.7064   87.2225   11.8895 N.am    1  UNL1       -0.2932
     12 C          63.5416   87.4582   13.1130 C.2     1  UNL1        0.2673
     13 O          64.0430   86.2937   13.9146 O.2     1  UNL1       -0.2684
     14 H          62.3773   87.9868   11.3634 H       1  UNL1        0.1502
     15 C          63.8753   88.8584   13.5349 C.ar    1  UNL1        0.1767
     16 C          62.9266   90.0199   13.5654 C.ar    1  UNL1        0.1476
     17 N          63.6813   91.2223   14.0498 N.ar    1  UNL1       -0.1445
     18 N          65.0965   90.8040   14.3186 N.ar    1  UNL1       -0.1462
     19 N          65.2165   89.3431   14.0004 N.ar    1  UNL1       -0.1417
     20 C          66.1983   91.6909   14.8179 C.ar    1  UNL1        0.1221
     21 C          67.5094   91.7401   14.0908 C.ar    1  UNL1        0.0264
     22 C          68.6112   92.6270   14.5901 C.ar    1  UNL1        0.0513
     23 C          68.4020   93.4648   15.8166 C.ar    1  UNL1        0.2224
     24 F          69.5039   94.3517   16.3160 F       1  UNL1       -0.1832
     25 N          67.0909   93.4157   16.5437 N.ar    1  UNL1       -0.2148
     26 C          65.9891   92.5287   16.0444 C.ar    1  UNL1        0.1221
     27 C          62.0139   85.5345   10.0399 C.3     1  UNL1        0.0553
     28 C          61.1220   86.4761    9.2862 C.ar    1  UNL1       -0.0190
     29 C          60.3948   86.0028    8.0627 C.ar    1  UNL1       -0.0010
     30 C          59.5029   86.9444    7.3091 C.ar    1  UNL1        0.0377
     31 C          59.3383   88.3594    7.7790 C.ar    1  UNL1        0.1572
     32 C          60.0655   88.8327    9.0026 C.ar    1  UNL1        0.0915
     33 CL         59.9009   90.2476    9.4725 Cl      1  UNL1       -0.0791
     34 C          60.9574   87.8911    9.7561 C.ar    1  UNL1        0.0103
     35 O          58.4464   89.3010    7.0254 O.3     1  UNL1       -0.4036
     36 C          59.0123   90.1549    5.9297 C.3     1  UNL1        0.5753
     37 F          59.5783   91.0088    4.8340 F       1  UNL1       -0.1328
     38 F          57.6282   90.6017    5.5630 F       1  UNL1       -0.1328
     39 F          60.3965   89.7080    6.2964 F       1  UNL1       -0.1328
@<TRIPOS>BOND
     1     9    10    3
     2    10     6    1
     3     6     2    1
     4     2     3   am
     5     3     4    2
     6     3     1    1
     7     1    27    1
     8    27    28    1
     9    28    29   ar
    10    29    30   ar
    11    30    31   ar
    12    31    35    1
    13    35    36    1
    14    36    37    1
    15    36    38    1
    16    36    39    1
    17    31    32   ar
    18    32    33    1
    19    32    34   ar
    20     1    11    1
    21    11    12   am
    22    12    13    2
    23    12    15    1
    24    15    16   ar
    25    16    17   ar
    26    17    18   ar
    27    18    20    1
    28    20    21   ar
    29    21    22   ar
    30    22    23   ar
    31    23    24    1
    32    23    25   ar
    33    25    26   ar
    34    18    19   ar
    35     6     7    1
    36     7     8    1
    37     8     6    1
    38    34    28   ar
    39    19    15   ar
    40    26    20   ar
    41     2     5    1
    42    11    14    1
@<TRIPOS>MOLECULE
*****
 39 42 0 0 0
SMALL
GASTEIGER

@<TRIPOS>ATOM
      1 C          59.5584   93.5842    1.4177 C.3     1  UNL1        0.1532
      2 N          58.5196   93.9732   -0.9318 N.am    1  UNL1       -0.2945
      3 C          59.3179   93.1223    0.0109 C.2     1  UNL1        0.2413
      4 O          59.8759   91.8095   -0.4531 O.2     1  UNL1       -0.2733
      5 H          58.1534   94.8348   -0.6272 H       1  UNL1        0.1503
      6 C          58.2793   93.5113   -2.3385 C.3     1  UNL1        0.1365
      7 C          58.4797   93.3187   -3.8125 C.3     1  UNL1        0.0353
      8 C          59.4650   94.1266   -3.0208 C.3     1  UNL1        0.0353
      9 N          55.7410   91.9598   -1.9508 N.1     1  UNL1       -0.1943
     10 C          57.0102   92.7356   -2.1447 C.1     1  UNL1        0.0896
     11 N          59.0415   92.7763    2.5710 N.am    1  UNL1       -0.2932
     12 C          60.0023   92.1356    3.5283 C.2     1  UNL1        0.2673
     13 O          61.4800   92.3028    3.3322 O.2     1  UNL1       -0.2684
     14 H          58.0716   92.6665    2.6996 H       1  UNL1        0.1502
     15 C          59.4854   91.3277    4.6816 C.ar    1  UNL1        0.1767
     16 C          58.0689   91.3001    5.1741 C.ar    1  UNL1        0.1476
     17 N          58.0023   90.3609    6.3418 N.ar    1  UNL1       -0.1445
     18 N          59.3777   89.8080    6.5709 N.ar    1  UNL1       -0.1462
     19 N          60.2944   90.4055    5.5449 N.ar    1  UNL1       -0.1417
     20 C          59.7680   88.8294    7.6386 C.ar    1  UNL1        0.1221
     21 C          59.5463   87.3610    7.4275 C.ar    1  UNL1        0.0264
     22 C          59.9367   86.3824    8.4953 C.ar    1  UNL1        0.0513
     23 C          60.5487   86.8723    9.7741 C.ar    1  UNL1        0.2224
     24 F          60.9390   85.8937   10.8419 F       1  UNL1       -0.1832
     25 N          60.7703   88.3407    9.9852 N.ar    1  UNL1       -0.2148
     26 C          60.3800   89.3193    8.9175 C.ar    1  UNL1        0.1221
     27 C          60.3156   94.8539    1.6711 C.3     1  UNL1        0.0553
     28 C          61.4949   95.2077    0.8142 C.ar    1  UNL1       -0.0190
     29 C          61.3580   96.2481   -0.2576 C.ar    1  UNL1       -0.0010
     30 C          62.5373   96.6018   -1.1144 C.ar    1  UNL1        0.0377
     31 C          63.8534   95.9151   -0.8996 C.ar    1  UNL1        0.1572
     32 C          63.9903   94.8746    0.1722 C.ar    1  UNL1        0.0915
     33 CL         65.3064   94.1878    0.3871 Cl      1  UNL1       -0.0791
     34 C          62.8110   94.5209    1.0290 C.ar    1  UNL1        0.0103
     35 O          65.0327   96.2688   -1.7565 O.3     1  UNL1       -0.4036
     36 C          65.1219   95.7496   -3.1609 C.3     1  UNL1        0.5753
     37 F          65.2110   95.2304   -4.5654 F       1  UNL1       -0.1328
     38 F          64.1679   94.6455   -2.8133 F       1  UNL1       -0.1328
     39 F          66.0758   96.8537   -3.5085 F       1  UNL1       -0.1328
@<TRIPOS>BOND
     1     9    10    3
     2    10     6    1
     3     6     2    1
     4     2     3   am
     5     3     4    2
     6     3     1    1
     7     1    27    1
     8    27    28    1
     9    28    29   ar
    10    29    30   ar
    11    30    31   ar
    12    31    35    1
    13    35    36    1
    14    36    37    1
    15    36    38    1
    16    36    39    1
    17    31    32   ar
    18    32    33    1
    19    32    34   ar
    20     1    11    1
    21    11    12   am
    22    12    13    2
    23    12    15    1
    24    15    16   ar
    25    16    17   ar
    26    17    18   ar
    27    18    20    1
    28    20    21   ar
    29    21    22   ar
    30    22    23   ar
    31    23    24    1
    32    23    25   ar
    33    25    26   ar
    34    18    19   ar
    35     6     7    1
    36     7     8    1
    37     8     6    1
    38    34    28   ar
    39    19    15   ar
    40    26    20   ar
    41     2     5    1
    42    11    14    1
