@<TRIPOS>MOLECULE
*****
 30 33 0 0 0
SMALL
GASTEIGER

@<TRIPOS>ATOM
      1 C          64.1414   85.3978   15.4859 C.ar    1  UNL1        0.1311
      2 C          64.5366   86.2978   14.3528 C.ar    1  UNL1        0.0339
      3 C          64.3182   87.7780   14.4596 C.ar    1  UNL1        0.0027
      4 C          63.7047   88.3581   15.6994 C.ar    1  UNL1        0.0283
      5 C          63.3095   87.4581   16.8324 C.ar    1  UNL1        0.2196
      6 F          62.6960   88.0383   18.0722 F       1  UNL1       -0.1835
      7 N          63.5279   85.9780   16.7256 N.ar    1  UNL1       -0.2035
      8 N          64.3597   83.9176   15.3792 N.pl3   1  UNL1       -0.3143
      9 H          65.1890   83.5162   15.7261 H       1  UNL1        0.1485
     10 C          63.3146   83.0491   14.7440 C.3     1  UNL1        0.1200
     11 C          62.8303   81.3658   12.8252 C.ar    1  UNL1        0.2224
     12 N          62.9636   80.9624   11.3866 N.ar    1  UNL1       -0.2104
     13 C          63.7144   81.8387   10.4283 C.ar    1  UNL1        0.1020
     14 C          64.3319   83.1186   10.9086 C.ar    1  UNL1        0.0206
     15 C          64.1987   83.5220   12.3472 C.ar    1  UNL1        0.0036
     16 C          63.4479   82.6456   13.3054 C.ar    1  UNL1        0.0506
     17 C          60.6489   80.7942   14.1153 C.3     1  UNL1        0.2542
     18 O          62.0795   80.4894   13.7834 O.3     1  UNL1       -0.4563
     19 C          63.4863   89.8384   15.8061 C.3     1  UNL1        0.0582
     20 C          64.2386   90.7742   14.9070 C.ar    1  UNL1        0.0044
     21 C          65.3471   91.6955   15.3224 C.ar    1  UNL1        0.0966
     22 N          65.8080   92.4437   14.1068 N.ar    1  UNL1       -0.2273
     23 C          64.9844   91.9848   12.9401 C.ar    1  UNL1        0.1402
     24 N          64.9924   92.3732   11.4913 N.ar    1  UNL1       -0.3377
     25 C          64.0304   91.7299   10.5371 C.ar    1  UNL1        0.0691
     26 C          63.0605   90.6981   11.0316 C.ar    1  UNL1       -0.0047
     27 C          62.0985   90.0547   10.0773 C.3     1  UNL1        0.0326
     28 C          63.0525   90.3096   12.4804 C.ar    1  UNL1       -0.0001
     29 C          64.0145   90.9530   13.4347 C.ar    1  UNL1        0.0315
     30 H          65.6290   93.0504   11.1667 H       1  UNL1        0.1674
@<TRIPOS>BOND
     1    17    18    1
     2    18    11    1
     3    11    12   ar
     4    12    13   ar
     5    13    14   ar
     6    14    15   ar
     7    15    16   ar
     8    16    10    1
     9    10     8    1
    10     8     1    1
    11     1     2   ar
    12     2     3   ar
    13     3     4   ar
    14     4    19    1
    15    19    20    1
    16    20    21   ar
    17    21    22   ar
    18    22    23   ar
    19    23    24   ar
    20    24    25   ar
    21    25    26   ar
    22    26    27    1
    23    26    28   ar
    24    28    29   ar
    25     4     5   ar
    26     5     6    1
    27     5     7   ar
    28    16    11   ar
    29     7     1   ar
    30    29    20   ar
    31    29    23    1
    32     8     9    1
    33    24    30    1
@<TRIPOS>MOLECULE
*****
 30 33 0 0 0
SMALL
GASTEIGER

@<TRIPOS>ATOM
      1 C          63.7300   91.1053   11.8750 C.ar    1  UNL1        0.1311
      2 C          63.8629   89.9016   12.7600 C.ar    1  UNL1        0.0339
      3 C          63.1202   88.6413   12.4284 C.ar    1  UNL1        0.0027
      4 C          62.2447   88.5847   11.2117 C.ar    1  UNL1        0.0283
      5 C          62.1118   89.7884   10.3267 C.ar    1  UNL1        0.2196
      6 F          61.2363   89.7318    9.1100 F       1  UNL1       -0.1835
      7 N          62.8545   91.0487   10.6583 N.ar    1  UNL1       -0.2035
      8 N          64.4726   92.3657   12.2065 N.pl3   1  UNL1       -0.3143
      9 H          63.9772   93.2012   12.3669 H       1  UNL1        0.1485
     10 C          65.9701   92.3531   12.2938 C.3     1  UNL1        0.1200
     11 C          66.7113   94.3347   10.7858 C.ar    1  UNL1        0.2224
     12 N          67.5333   94.8651    9.6487 N.ar    1  UNL1       -0.2104
     13 C          68.4360   93.9442    8.8824 C.ar    1  UNL1        0.1020
     14 C          68.5167   92.4930    9.2533 C.ar    1  UNL1        0.0206
     15 C          67.6947   91.9627   10.3904 C.ar    1  UNL1        0.0036
     16 C          66.7920   92.8835   11.1567 C.ar    1  UNL1        0.0506
     17 C          66.0151   96.7395   11.4803 C.3     1  UNL1        0.2542
     18 O          65.8087   95.2556   11.5521 O.3     1  UNL1       -0.4563
     19 C          61.5020   87.3242   10.8801 C.3     1  UNL1        0.0582
     20 C          62.2139   86.1900   10.2043 C.ar    1  UNL1        0.0044
     21 C          62.3959   86.0196    8.7252 C.ar    1  UNL1        0.0966
     22 N          63.1632   84.7513    8.4957 N.ar    1  UNL1       -0.2273
     23 C          63.4554   84.1379    9.8330 C.ar    1  UNL1        0.1402
     24 N          64.1800   82.8845   10.2256 N.ar    1  UNL1       -0.3377
     25 C          64.3177   82.5204   11.6742 C.ar    1  UNL1        0.0691
     26 C          63.7310   83.4096   12.7301 C.ar    1  UNL1       -0.0047
     27 C          63.8688   83.0454   14.1788 C.3     1  UNL1        0.0326
     28 C          63.0065   84.6629   12.3376 C.ar    1  UNL1       -0.0001
     29 C          62.8687   85.0270   10.8890 C.ar    1  UNL1        0.0315
     30 H          64.5651   82.3009    9.5325 H       1  UNL1        0.1674
@<TRIPOS>BOND
     1    17    18    1
     2    18    11    1
     3    11    12   ar
     4    12    13   ar
     5    13    14   ar
     6    14    15   ar
     7    15    16   ar
     8    16    10    1
     9    10     8    1
    10     8     1    1
    11     1     2   ar
    12     2     3   ar
    13     3     4   ar
    14     4    19    1
    15    19    20    1
    16    20    21   ar
    17    21    22   ar
    18    22    23   ar
    19    23    24   ar
    20    24    25   ar
    21    25    26   ar
    22    26    27    1
    23    26    28   ar
    24    28    29   ar
    25     4     5   ar
    26     5     6    1
    27     5     7   ar
    28    16    11   ar
    29     7     1   ar
    30    29    20   ar
    31    29    23    1
    32     8     9    1
    33    24    30    1
@<TRIPOS>MOLECULE
*****
 30 33 0 0 0
SMALL
GASTEIGER

@<TRIPOS>ATOM
      1 C          65.5317   92.3904   12.0677 C.ar    1  UNL1        0.1311
      2 C          64.7647   92.1190   10.8075 C.ar    1  UNL1        0.0339
      3 C          63.5826   91.1961   10.8331 C.ar    1  UNL1        0.0027
      4 C          63.1674   90.5445   12.1188 C.ar    1  UNL1        0.0283
      5 C          63.9344   90.8159   13.3790 C.ar    1  UNL1        0.2196
      6 F          63.5193   90.1643   14.6647 F       1  UNL1       -0.1835
      7 N          65.1166   91.7388   13.3534 N.ar    1  UNL1       -0.2035
      8 N          66.7139   93.3133   12.0421 N.pl3   1  UNL1       -0.3143
      9 H          67.6219   92.9537   12.1663 H       1  UNL1        0.1485
     10 C          66.5127   94.7842   11.8274 C.3     1  UNL1        0.1200
     11 C          67.4158   94.9090    9.3946 C.ar    1  UNL1        0.2224
     12 N          67.3247   95.4581    8.0017 N.ar    1  UNL1       -0.2104
     13 C          66.2392   96.4315    7.6487 C.ar    1  UNL1        0.1020
     14 C          65.2450   96.8557    8.6887 C.ar    1  UNL1        0.0206
     15 C          65.3362   96.3065   10.0816 C.ar    1  UNL1        0.0036
     16 C          66.4216   95.3332   10.4345 C.ar    1  UNL1        0.0506
     17 C          68.5545   92.5957    9.0759 C.3     1  UNL1        0.2542
     18 O          68.5012   93.9357    9.7475 O.3     1  UNL1       -0.4563
     19 C          61.9852   89.6215   12.1444 C.3     1  UNL1        0.0582
     20 C          61.2673   89.2868   10.8705 C.ar    1  UNL1        0.0044
     21 C          60.2196   90.1267   10.2021 C.ar    1  UNL1        0.0966
     22 N          59.7759   89.4124    8.9600 N.ar    1  UNL1       -0.2273
     23 C          60.5495   88.1311    8.8607 C.ar    1  UNL1        0.1402
     24 N          60.5337   87.0250    7.8476 N.ar    1  UNL1       -0.3377
     25 C          61.4396   85.8413    8.0154 C.ar    1  UNL1        0.0691
     26 C          62.3614   85.7638    9.1962 C.ar    1  UNL1       -0.0047
     27 C          63.2674   84.5800    9.3639 C.3     1  UNL1        0.0326
     28 C          62.3772   86.8698   10.2093 C.ar    1  UNL1       -0.0001
     29 C          61.4713   88.0535   10.0415 C.ar    1  UNL1        0.0315
     30 H          59.9287   87.0759    7.0726 H       1  UNL1        0.1674
@<TRIPOS>BOND
     1    17    18    1
     2    18    11    1
     3    11    12   ar
     4    12    13   ar
     5    13    14   ar
     6    14    15   ar
     7    15    16   ar
     8    16    10    1
     9    10     8    1
    10     8     1    1
    11     1     2   ar
    12     2     3   ar
    13     3     4   ar
    14     4    19    1
    15    19    20    1
    16    20    21   ar
    17    21    22   ar
    18    22    23   ar
    19    23    24   ar
    20    24    25   ar
    21    25    26   ar
    22    26    27    1
    23    26    28   ar
    24    28    29   ar
    25     4     5   ar
    26     5     6    1
    27     5     7   ar
    28    16    11   ar
    29     7     1   ar
    30    29    20   ar
    31    29    23    1
    32     8     9    1
    33    24    30    1
@<TRIPOS>MOLECULE
*****
 30 33 0 0 0
SMALL
GASTEIGER

@<TRIPOS>ATOM
      1 C          61.8599   89.2006   11.5130 C.ar    1  UNL1        0.1311
      2 C          62.1453   89.8116   10.1731 C.ar    1  UNL1        0.0339
      3 C          63.1042   90.9596   10.0613 C.ar    1  UNL1        0.0027
      4 C          63.7777   91.4967   11.2893 C.ar    1  UNL1        0.0283
      5 C          63.4923   90.8857   12.6292 C.ar    1  UNL1        0.2196
      6 F          64.1657   91.4228   13.8572 F       1  UNL1       -0.1835
      7 N          62.5334   89.7377   12.7410 N.ar    1  UNL1       -0.2035
      8 N          60.9011   88.0525   11.6249 N.pl3   1  UNL1       -0.3143
      9 H          60.4559   87.8649   12.4827 H       1  UNL1        0.1485
     10 C          60.6204   87.1904   10.4299 C.3     1  UNL1        0.1200
     11 C          62.2975   85.2915   11.0061 C.ar    1  UNL1        0.2224
     12 N          63.3026   84.2685   10.5666 N.ar    1  UNL1       -0.2104
     13 C          63.6358   84.1214    9.1115 C.ar    1  UNL1        0.1020
     14 C          62.9640   84.9972    8.0959 C.ar    1  UNL1        0.0206
     15 C          61.9588   86.0202    8.5354 C.ar    1  UNL1        0.0036
     16 C          61.6256   86.1674    9.9905 C.ar    1  UNL1        0.0506
     17 C          62.7278   84.6566   13.4883 C.3     1  UNL1        0.2542
     18 O          61.9642   85.4387   12.4612 O.3     1  UNL1       -0.4563
     19 C          64.7366   92.6448   11.1775 C.3     1  UNL1        0.0582
     20 C          66.2135   92.4003   11.2719 C.ar    1  UNL1        0.0044
     21 C          67.1449   92.1722   10.1184 C.ar    1  UNL1        0.0966
     22 N          68.5254   91.9720   10.6700 N.ar    1  UNL1       -0.2273
     23 C          68.4471   92.0763   12.1644 C.ar    1  UNL1        0.1402
     24 N          69.4923   91.9645   13.2344 N.ar    1  UNL1       -0.3377
     25 C          69.1087   92.1173   14.6764 C.ar    1  UNL1        0.0691
     26 C          67.6798   92.3821   15.0483 C.ar    1  UNL1       -0.0047
     27 C          67.2962   92.5350   16.4904 C.3     1  UNL1        0.0326
     28 C          66.6347   92.4939   13.9783 C.ar    1  UNL1       -0.0001
     29 C          67.0183   92.3411   12.5363 C.ar    1  UNL1        0.0315
     30 H          70.4301   91.7907   12.9903 H       1  UNL1        0.1674
@<TRIPOS>BOND
     1    17    18    1
     2    18    11    1
     3    11    12   ar
     4    12    13   ar
     5    13    14   ar
     6    14    15   ar
     7    15    16   ar
     8    16    10    1
     9    10     8    1
    10     8     1    1
    11     1     2   ar
    12     2     3   ar
    13     3     4   ar
    14     4    19    1
    15    19    20    1
    16    20    21   ar
    17    21    22   ar
    18    22    23   ar
    19    23    24   ar
    20    24    25   ar
    21    25    26   ar
    22    26    27    1
    23    26    28   ar
    24    28    29   ar
    25     4     5   ar
    26     5     6    1
    27     5     7   ar
    28    16    11   ar
    29     7     1   ar
    30    29    20   ar
    31    29    23    1
    32     8     9    1
    33    24    30    1
@<TRIPOS>MOLECULE
*****
 30 33 0 0 0
SMALL
GASTEIGER

@<TRIPOS>ATOM
      1 C          63.7093   86.1071   15.0024 C.ar    1  UNL1        0.1311
      2 C          64.1252   87.0288   13.8945 C.ar    1  UNL1        0.0339
      3 C          64.1944   88.5077   14.1355 C.ar    1  UNL1        0.0027
      4 C          63.8477   89.0648   15.4844 C.ar    1  UNL1        0.0283
      5 C          63.4318   88.1431   16.5923 C.ar    1  UNL1        0.2196
      6 F          63.0851   88.7003   17.9411 F       1  UNL1       -0.1835
      7 N          63.3626   86.6643   16.3512 N.ar    1  UNL1       -0.2035
      8 N          63.6400   84.6282   14.7615 N.pl3   1  UNL1       -0.3143
      9 H          64.2408   84.0211   15.2511 H       1  UNL1        0.1485
     10 C          62.6555   84.0743   13.7746 C.3     1  UNL1        0.1200
     11 C          62.4258   85.0330   11.3708 C.ar    1  UNL1        0.2224
     12 N          62.7741   84.9808    9.9127 N.ar    1  UNL1       -0.2104
     13 C          63.7001   83.9178    9.4004 C.ar    1  UNL1        0.1020
     14 C          64.2779   82.9070   10.3461 C.ar    1  UNL1        0.0206
     15 C          63.9297   82.9592   11.8042 C.ar    1  UNL1        0.0036
     16 C          63.0037   84.0222   12.3165 C.ar    1  UNL1        0.0506
     17 C          60.8516   87.0513   10.9256 C.3     1  UNL1        0.2542
     18 O          61.4998   86.0960   11.8832 O.3     1  UNL1       -0.4563
     19 C          63.9170   90.5438   15.7253 C.3     1  UNL1        0.0582
     20 C          64.8964   91.3834   14.9599 C.ar    1  UNL1        0.0044
     21 C          66.0980   92.0768   15.5301 C.ar    1  UNL1        0.0966
     22 N          66.7903   92.7988   14.4124 N.ar    1  UNL1       -0.2273
     23 C          66.0166   92.5517   13.1514 C.ar    1  UNL1        0.1402
     24 N          66.2266   93.0103   11.7387 N.ar    1  UNL1       -0.3377
     25 C          65.2661   92.5940   10.6645 C.ar    1  UNL1        0.0691
     26 C          64.0956   91.7192   11.0028 C.ar    1  UNL1       -0.0047
     27 C          63.1351   91.3029    9.9284 C.3     1  UNL1        0.0326
     28 C          63.8855   91.2606   12.4154 C.ar    1  UNL1       -0.0001
     29 C          64.8460   91.6769   13.4897 C.ar    1  UNL1        0.0315
     30 H          66.9949   93.5845   11.5167 H       1  UNL1        0.1674
@<TRIPOS>BOND
     1    17    18    1
     2    18    11    1
     3    11    12   ar
     4    12    13   ar
     5    13    14   ar
     6    14    15   ar
     7    15    16   ar
     8    16    10    1
     9    10     8    1
    10     8     1    1
    11     1     2   ar
    12     2     3   ar
    13     3     4   ar
    14     4    19    1
    15    19    20    1
    16    20    21   ar
    17    21    22   ar
    18    22    23   ar
    19    23    24   ar
    20    24    25   ar
    21    25    26   ar
    22    26    27    1
    23    26    28   ar
    24    28    29   ar
    25     4     5   ar
    26     5     6    1
    27     5     7   ar
    28    16    11   ar
    29     7     1   ar
    30    29    20   ar
    31    29    23    1
    32     8     9    1
    33    24    30    1
@<TRIPOS>MOLECULE
*****
 30 33 0 0 0
SMALL
GASTEIGER

@<TRIPOS>ATOM
      1 C          62.3459   86.4311   11.1678 C.ar    1  UNL1        0.1311
      2 C          61.7031   87.4024   10.2225 C.ar    1  UNL1        0.0339
      3 C          61.8298   88.8776   10.4621 C.ar    1  UNL1        0.0027
      4 C          62.5992   89.3817   11.6470 C.ar    1  UNL1        0.0283
      5 C          63.2420   88.4105   12.5923 C.ar    1  UNL1        0.2196
      6 F          64.0115   88.9146   13.7771 F       1  UNL1       -0.1835
      7 N          63.1153   86.9352   12.3526 N.ar    1  UNL1       -0.2035
      8 N          62.2193   84.9558   10.9283 N.pl3   1  UNL1       -0.3143
      9 H          61.4309   84.5993   10.4586 H       1  UNL1        0.1485
     10 C          63.2938   84.0237   11.4043 C.3     1  UNL1        0.1200
     11 C          62.5332   83.0749   13.7003 C.ar    1  UNL1        0.2224
     12 N          62.1799   81.9047   14.5696 N.ar    1  UNL1       -0.2104
     13 C          62.2338   80.5131   14.0124 C.ar    1  UNL1        0.1020
     14 C          62.6411   80.2917   12.5858 C.ar    1  UNL1        0.0206
     15 C          62.9944   81.4619   11.7165 C.ar    1  UNL1        0.0036
     16 C          62.9405   82.8535   12.2737 C.ar    1  UNL1        0.0506
     17 C          63.4295   84.8772   15.3429 C.3     1  UNL1        0.2542
     18 O          62.4793   84.4665   14.2575 O.3     1  UNL1       -0.4563
     19 C          62.7259   90.8571   11.8865 C.3     1  UNL1        0.0582
     20 C          64.0329   91.5484   11.6342 C.ar    1  UNL1        0.0044
     21 C          64.5963   91.9061   10.2908 C.ar    1  UNL1        0.0966
     22 N          65.9176   92.5822   10.5074 N.ar    1  UNL1       -0.2273
     23 C          66.1710   92.6423   11.9846 C.ar    1  UNL1        0.1402
     24 N          67.3118   93.1963   12.7856 N.ar    1  UNL1       -0.3377
     25 C          67.2878   93.1115   14.2829 C.ar    1  UNL1        0.0691
     26 C          66.1230   92.4726   14.9794 C.ar    1  UNL1       -0.0047
     27 C          66.0990   92.3877   16.4768 C.3     1  UNL1        0.0326
     28 C          64.9821   91.9186   14.1784 C.ar    1  UNL1       -0.0001
     29 C          65.0061   92.0035   12.6811 C.ar    1  UNL1        0.0315
     30 H          68.0763   93.6157   12.3285 H       1  UNL1        0.1674
@<TRIPOS>BOND
     1    17    18    1
     2    18    11    1
     3    11    12   ar
     4    12    13   ar
     5    13    14   ar
     6    14    15   ar
     7    15    16   ar
     8    16    10    1
     9    10     8    1
    10     8     1    1
    11     1     2   ar
    12     2     3   ar
    13     3     4   ar
    14     4    19    1
    15    19    20    1
    16    20    21   ar
    17    21    22   ar
    18    22    23   ar
    19    23    24   ar
    20    24    25   ar
    21    25    26   ar
    22    26    27    1
    23    26    28   ar
    24    28    29   ar
    25     4     5   ar
    26     5     6    1
    27     5     7   ar
    28    16    11   ar
    29     7     1   ar
    30    29    20   ar
    31    29    23    1
    32     8     9    1
    33    24    30    1
@<TRIPOS>MOLECULE
*****
 30 33 0 0 0
SMALL
GASTEIGER

@<TRIPOS>ATOM
      1 C          61.7601   89.2145   11.3162 C.ar    1  UNL1        0.1311
      2 C          62.0735   89.9137   10.0266 C.ar    1  UNL1        0.0339
      3 C          63.0412   91.0597   10.0108 C.ar    1  UNL1        0.0027
      4 C          63.6955   91.5064   11.2845 C.ar    1  UNL1        0.0283
      5 C          63.3822   90.8072   12.5740 C.ar    1  UNL1        0.2196
      6 F          64.0365   91.2540   13.8477 F       1  UNL1       -0.1835
      7 N          62.4145   89.6613   12.5898 N.ar    1  UNL1       -0.2035
      8 N          60.7924   88.0685   11.3321 N.pl3   1  UNL1       -0.3143
      9 H          59.8257   88.2415   11.4011 H       1  UNL1        0.1485
     10 C          61.2976   86.6589   11.2427 C.3     1  UNL1        0.1200
     11 C          60.7841   86.3476    8.7150 C.ar    1  UNL1        0.2224
     12 N          61.1368   85.7603    7.3806 N.ar    1  UNL1       -0.2104
     13 C          62.3555   84.8972    7.2394 C.ar    1  UNL1        0.1020
     14 C          63.2215   84.6214    8.4327 C.ar    1  UNL1        0.0206
     15 C          62.8688   85.2086    9.7671 C.ar    1  UNL1        0.0036
     16 C          61.6501   86.0717    9.9083 C.ar    1  UNL1        0.0506
     17 C          59.1617   88.1267    7.7392 C.3     1  UNL1        0.2542
     18 O          59.5655   87.2107    8.8561 O.3     1  UNL1       -0.4563
     19 C          64.6633   92.6525   11.2686 C.3     1  UNL1        0.0582
     20 C          66.1389   92.3889   11.3247 C.ar    1  UNL1        0.0044
     21 C          67.0362   92.1444   10.1479 C.ar    1  UNL1        0.0966
     22 N          68.4281   91.9279   10.6635 N.ar    1  UNL1       -0.2273
     23 C          68.3910   92.0386   12.1589 C.ar    1  UNL1        0.1402
     24 N          69.4627   91.9168   13.2013 N.ar    1  UNL1       -0.3377
     25 C          69.1196   92.0799   14.6523 C.ar    1  UNL1        0.0691
     26 C          67.7048   92.3648   15.0610 C.ar    1  UNL1       -0.0047
     27 C          67.3617   92.5279   16.5122 C.3     1  UNL1        0.0326
     28 C          66.6330   92.4866   14.0187 C.ar    1  UNL1       -0.0001
     29 C          66.9762   92.3235   12.5676 C.ar    1  UNL1        0.0315
     30 H          70.3913   91.7298   12.9330 H       1  UNL1        0.1674
@<TRIPOS>BOND
     1    17    18    1
     2    18    11    1
     3    11    12   ar
     4    12    13   ar
     5    13    14   ar
     6    14    15   ar
     7    15    16   ar
     8    16    10    1
     9    10     8    1
    10     8     1    1
    11     1     2   ar
    12     2     3   ar
    13     3     4   ar
    14     4    19    1
    15    19    20    1
    16    20    21   ar
    17    21    22   ar
    18    22    23   ar
    19    23    24   ar
    20    24    25   ar
    21    25    26   ar
    22    26    27    1
    23    26    28   ar
    24    28    29   ar
    25     4     5   ar
    26     5     6    1
    27     5     7   ar
    28    16    11   ar
    29     7     1   ar
    30    29    20   ar
    31    29    23    1
    32     8     9    1
    33    24    30    1
@<TRIPOS>MOLECULE
*****
 30 33 0 0 0
SMALL
GASTEIGER

@<TRIPOS>ATOM
      1 C          62.0243   86.4086   10.8772 C.ar    1  UNL1        0.1311
      2 C          62.8795   87.0937   11.9015 C.ar    1  UNL1        0.0339
      3 C          63.0531   88.5829   11.8587 C.ar    1  UNL1        0.0027
      4 C          62.3715   89.3872   10.7916 C.ar    1  UNL1        0.0283
      5 C          61.5163   88.7021    9.7673 C.ar    1  UNL1        0.2196
      6 F          60.8347   89.5063    8.7002 F       1  UNL1       -0.1835
      7 N          61.3427   87.2128    9.8101 N.ar    1  UNL1       -0.2035
      8 N          61.8506   84.9193   10.9199 N.pl3   1  UNL1       -0.3143
      9 H          60.9745   84.5198   10.7149 H       1  UNL1        0.1485
     10 C          63.0118   84.0386   11.2750 C.3     1  UNL1        0.1200
     11 C          62.5333   83.0748   13.6398 C.ar    1  UNL1        0.2224
     12 N          62.3315   81.8966   14.5459 N.ar    1  UNL1       -0.2104
     13 C          62.4064   80.5041   13.9935 C.ar    1  UNL1        0.1020
     14 C          62.6831   80.2897   12.5349 C.ar    1  UNL1        0.0206
     15 C          62.8849   81.4679   11.6288 C.ar    1  UNL1        0.0036
     16 C          62.8100   82.8605   12.1812 C.ar    1  UNL1        0.0506
     17 C          63.6480   85.0653   14.8830 C.3     1  UNL1        0.2542
     18 O          62.4584   84.4674   14.1922 O.3     1  UNL1       -0.4563
     19 C          62.5452   90.8765   10.7489 C.3     1  UNL1        0.0582
     20 C          63.7785   91.5047   11.3270 C.ar    1  UNL1        0.0044
     21 C          64.8204   92.2673   10.5635 C.ar    1  UNL1        0.0966
     22 N          65.8722   92.7144   11.5348 N.ar    1  UNL1       -0.2273
     23 C          65.4805   92.2283   12.8987 C.ar    1  UNL1        0.1402
     24 N          66.1349   92.3698   14.2410 N.ar    1  UNL1       -0.3377
     25 C          65.4953   91.7637   15.4548 C.ar    1  UNL1        0.0691
     26 C          64.2012   91.0160   15.3264 C.ar    1  UNL1       -0.0047
     27 C          63.5616   90.4099   16.5403 C.3     1  UNL1        0.0326
     28 C          63.5468   90.8745   13.9841 C.ar    1  UNL1       -0.0001
     29 C          64.1865   91.4806   12.7703 C.ar    1  UNL1        0.0315
     30 H          66.9842   92.8605   14.3253 H       1  UNL1        0.1674
@<TRIPOS>BOND
     1    17    18    1
     2    18    11    1
     3    11    12   ar
     4    12    13   ar
     5    13    14   ar
     6    14    15   ar
     7    15    16   ar
     8    16    10    1
     9    10     8    1
    10     8     1    1
    11     1     2   ar
    12     2     3   ar
    13     3     4   ar
    14     4    19    1
    15    19    20    1
    16    20    21   ar
    17    21    22   ar
    18    22    23   ar
    19    23    24   ar
    20    24    25   ar
    21    25    26   ar
    22    26    27    1
    23    26    28   ar
    24    28    29   ar
    25     4     5   ar
    26     5     6    1
    27     5     7   ar
    28    16    11   ar
    29     7     1   ar
    30    29    20   ar
    31    29    23    1
    32     8     9    1
    33    24    30    1
@<TRIPOS>MOLECULE
*****
 30 33 0 0 0
SMALL
GASTEIGER

@<TRIPOS>ATOM
      1 C          63.7673   91.0263   11.9317 C.ar    1  UNL1        0.1311
      2 C          63.8660   89.8253   12.8250 C.ar    1  UNL1        0.0339
      3 C          63.1183   88.5713   12.4809 C.ar    1  UNL1        0.0027
      4 C          62.2720   88.5182   11.2436 C.ar    1  UNL1        0.0283
      5 C          62.1734   89.7192   10.3503 C.ar    1  UNL1        0.2196
      6 F          61.3271   89.6662    9.1130 F       1  UNL1       -0.1835
      7 N          62.9210   90.9732   10.6944 N.ar    1  UNL1       -0.2035
      8 N          64.5150   92.2803   12.2758 N.pl3   1  UNL1       -0.3143
      9 H          64.0606   93.0070   12.7602 H       1  UNL1        0.1485
     10 C          65.9549   92.4272   11.8818 C.3     1  UNL1        0.1200
     11 C          67.4068   93.5603   10.0493 C.ar    1  UNL1        0.2224
     12 N          67.8670   94.7978    9.3375 N.ar    1  UNL1       -0.2104
     13 C          67.3357   96.1397    9.7463 C.ar    1  UNL1        0.1020
     14 C          66.3440   96.2440   10.8669 C.ar    1  UNL1        0.0206
     15 C          65.8838   95.0065   11.5787 C.ar    1  UNL1        0.0036
     16 C          66.4152   93.6646   11.1699 C.ar    1  UNL1        0.0506
     17 C          68.9884   92.1208    8.5741 C.3     1  UNL1        0.2542
     18 O          67.9382   92.2185    9.6405 O.3     1  UNL1       -0.4563
     19 C          61.5243   87.2641   10.8995 C.3     1  UNL1        0.0582
     20 C          62.2389   86.1220   10.2400 C.ar    1  UNL1        0.0044
     21 C          62.4578   85.9522    8.7658 C.ar    1  UNL1        0.0966
     22 N          63.2142   84.6743    8.5538 N.ar    1  UNL1       -0.2273
     23 C          63.4628   84.0544    9.8969 C.ar    1  UNL1        0.1402
     24 N          64.1601   82.7908   10.3055 N.ar    1  UNL1       -0.3377
     25 C          64.2547   82.4219   11.7563 C.ar    1  UNL1        0.0691
     26 C          63.6519   83.3166   12.7985 C.ar    1  UNL1       -0.0047
     27 C          63.7465   82.9477   14.2494 C.3     1  UNL1        0.0326
     28 C          62.9546   84.5802   12.3899 C.ar    1  UNL1       -0.0001
     29 C          62.8600   84.9491   10.9390 C.ar    1  UNL1        0.0315
     30 H          64.5557   82.2036    9.6214 H       1  UNL1        0.1674
@<TRIPOS>BOND
     1    17    18    1
     2    18    11    1
     3    11    12   ar
     4    12    13   ar
     5    13    14   ar
     6    14    15   ar
     7    15    16   ar
     8    16    10    1
     9    10     8    1
    10     8     1    1
    11     1     2   ar
    12     2     3   ar
    13     3     4   ar
    14     4    19    1
    15    19    20    1
    16    20    21   ar
    17    21    22   ar
    18    22    23   ar
    19    23    24   ar
    20    24    25   ar
    21    25    26   ar
    22    26    27    1
    23    26    28   ar
    24    28    29   ar
    25     4     5   ar
    26     5     6    1
    27     5     7   ar
    28    16    11   ar
    29     7     1   ar
    30    29    20   ar
    31    29    23    1
    32     8     9    1
    33    24    30    1
