@<TRIPOS>MOLECULE
*****
 30 34 0 0 0
SMALL
GASTEIGER

@<TRIPOS>ATOM
      1 C          62.6331   89.8951   11.4164 C.2     1  UNL1        0.0294
      2 C          61.7271   90.7175   10.5489 C.2     1  UNL1        0.2320
      3 N          60.8833   90.0518    9.5025 N.2     1  UNL1       -0.0311
      4 C          60.9455   88.5638    9.3238 C.2     1  UNL1        0.3720
      5 N          60.2363   87.6354    8.3829 N.2     1  UNL1       -0.0308
      6 C          60.7041   86.2392    8.6690 C.2     1  UNL1        0.2355
      7 C          61.7024   86.3048    9.7867 C.2     1  UNL1        0.0469
      8 C          61.8516   87.7415   10.1913 C.2     1  UNL1        0.0740
      9 C          62.6954   88.4071   11.2377 C.3     1  UNL1        0.0645
     10 C          62.4247   85.1385   10.3933 C.2     1  UNL1       -0.0140
     11 C          63.3861   84.3386    9.5652 C.2     1  UNL1       -0.0023
     12 C          64.1084   83.1723   10.1718 C.2     1  UNL1        0.0185
     13 C          63.8692   82.8057   11.6065 C.2     1  UNL1        0.0777
     14 N          64.4316   81.7169   12.4714 N.2     1  UNL1       -0.2442
     15 C          63.8177   81.8438   13.8341 C.2     1  UNL1        0.0985
     16 C          62.8759   83.0111   13.8114 C.2     1  UNL1        0.0182
     17 C          62.9078   83.6056   12.4346 C.2     1  UNL1        0.0014
     18 C          62.1855   84.7719   11.8280 C.3     1  UNL1        0.0543
     19 C          65.3732   92.2163   13.1060 C.ar    1  UNL1        0.1754
     20 C          64.5293   91.5507   12.0596 C.ar    1  UNL1        0.0401
     21 C          63.4770   90.5607   12.4628 C.ar    1  UNL1        0.0063
     22 C          63.2685   90.2364   13.9124 C.ar    1  UNL1        0.0401
     23 C          64.1123   90.9019   14.9588 C.ar    1  UNL1        0.1754
     24 C          65.1647   91.8919   14.5556 C.ar    1  UNL1        0.2061
     25 C          66.1107   94.2632   11.6861 C.3     1  UNL1        0.2526
     26 O          66.4255   93.2062   12.7028 O.3     1  UNL1       -0.4683
     27 O          63.9038   90.5776   16.4084 O.3     1  UNL1       -0.4683
     28 C          63.1270   89.3553   16.7993 C.3     1  UNL1        0.2526
     29 O          66.0085   92.5575   15.6020 O.3     1  UNL1       -0.4654
     30 C          67.4506   92.1752   15.7573 C.3     1  UNL1        0.2528
@<TRIPOS>BOND
     1    25    26    1
     2    26    19    1
     3    19    20   ar
     4    20    21   ar
     5    21     1    1
     6     1     2    2
     7     2     3    1
     8     3     4    2
     9     4     5    1
    10     5     6    2
    11     6     7    1
    12     7    10    1
    13    10    11    2
    14    11    12    1
    15    12    13    2
    16    13    14    1
    17    14    15    2
    18    15    16    1
    19    16    17    2
    20    17    18    1
    21     7     8    2
    22     8     9    1
    23    21    22   ar
    24    22    23   ar
    25    23    27    1
    26    27    28    1
    27    23    24   ar
    28    24    29    1
    29    29    30    1
    30    24    19   ar
    31     9     1    1
    32     8     4    1
    33    18    10    1
    34    17    13    1
@<TRIPOS>MOLECULE
*****
 30 34 0 0 0
SMALL
GASTEIGER

@<TRIPOS>ATOM
      1 C          62.6342   89.9076   11.4256 C.2     1  UNL1        0.0294
      2 C          61.7237   90.7302   10.5629 C.2     1  UNL1        0.2320
      3 N          60.8771   90.0653    9.5185 N.2     1  UNL1       -0.0311
      4 C          60.9408   88.5778    9.3366 C.2     1  UNL1        0.3720
      5 N          60.2295   87.6501    8.3966 N.2     1  UNL1       -0.0308
      6 C          60.7004   86.2541    8.6784 C.2     1  UNL1        0.2355
      7 C          61.7027   86.3190    9.7925 C.2     1  UNL1        0.0469
      8 C          61.8513   87.7551   10.1993 C.2     1  UNL1        0.0740
      9 C          62.6979   88.4200   11.2438 C.3     1  UNL1        0.0645
     10 C          62.4289   85.1526   10.3942 C.2     1  UNL1       -0.0140
     11 C          63.3773   84.3466    9.5570 C.2     1  UNL1       -0.0023
     12 C          64.1036   83.1802   10.1587 C.2     1  UNL1        0.0185
     13 C          63.8814   82.8197   11.5977 C.2     1  UNL1        0.0777
     14 N          64.4512   81.7322   12.4594 N.2     1  UNL1       -0.2442
     15 C          63.8550   81.8661   13.8293 C.2     1  UNL1        0.0985
     16 C          62.9167   83.0362   13.8142 C.2     1  UNL1        0.0182
     17 C          62.9330   83.6256   12.4349 C.2     1  UNL1        0.0014
     18 C          62.2068   84.7920   11.8332 C.3     1  UNL1        0.0543
     19 C          64.1078   90.9292   14.9661 C.ar    1  UNL1        0.1754
     20 C          63.2611   90.2643   13.9216 C.ar    1  UNL1        0.0401
     21 C          63.4809   90.5725   12.4702 C.ar    1  UNL1        0.0063
     22 C          64.5475   91.5455   12.0632 C.ar    1  UNL1        0.0401
     23 C          65.3942   92.2104   13.1077 C.ar    1  UNL1        0.1754
     24 C          65.1744   91.9022   14.5592 C.ar    1  UNL1        0.2061
     25 C          63.1446   89.3808   16.8167 C.3     1  UNL1        0.2526
     26 O          63.8880   90.6210   16.4176 O.3     1  UNL1       -0.4683
     27 O          66.4608   93.1834   12.7007 O.3     1  UNL1       -0.4683
     28 C          66.1533   94.2583   11.7006 C.3     1  UNL1        0.2526
     29 O          66.0211   92.5671   15.6037 O.3     1  UNL1       -0.4654
     30 C          67.4550   92.1622   15.7760 C.3     1  UNL1        0.2528
@<TRIPOS>BOND
     1    25    26    1
     2    26    19    1
     3    19    20   ar
     4    20    21   ar
     5    21     1    1
     6     1     2    2
     7     2     3    1
     8     3     4    2
     9     4     5    1
    10     5     6    2
    11     6     7    1
    12     7    10    1
    13    10    11    2
    14    11    12    1
    15    12    13    2
    16    13    14    1
    17    14    15    2
    18    15    16    1
    19    16    17    2
    20    17    18    1
    21     7     8    2
    22     8     9    1
    23    21    22   ar
    24    22    23   ar
    25    23    27    1
    26    27    28    1
    27    23    24   ar
    28    24    29    1
    29    29    30    1
    30    24    19   ar
    31     9     1    1
    32     8     4    1
    33    18    10    1
    34    17    13    1
@<TRIPOS>MOLECULE
*****
 30 34 0 0 0
SMALL
GASTEIGER

@<TRIPOS>ATOM
      1 C          64.2315   89.6212   15.1163 C.2     1  UNL1        0.0294
      2 C          63.7091   90.0858   16.4434 C.2     1  UNL1        0.2320
      3 N          63.0667   89.1069   17.3810 N.2     1  UNL1       -0.0311
      4 C          62.9467   87.6633   16.9914 C.2     1  UNL1        0.3720
      5 N          62.3666   86.4767   17.7025 N.2     1  UNL1       -0.0308
      6 C          62.5305   85.2787   16.8148 C.2     1  UNL1        0.2355
      7 C          63.2118   85.7250   15.5551 C.2     1  UNL1        0.0469
      8 C          63.4691   87.1987   15.6643 C.2     1  UNL1        0.0740
      9 C          64.1114   88.1776   14.7268 C.3     1  UNL1        0.0645
     10 C          63.5726   84.8509   14.3907 C.2     1  UNL1       -0.0140
     11 C          64.3528   83.5893   14.6132 C.2     1  UNL1       -0.0023
     12 C          64.7136   82.7153   13.4488 C.2     1  UNL1        0.0185
     13 C          64.2941   83.1028   12.0618 C.2     1  UNL1        0.0777
     14 N          64.5030   82.4458   10.7296 N.2     1  UNL1       -0.2442
     15 C          63.8519   83.3014    9.6837 C.2     1  UNL1        0.0985
     16 C          63.2406   84.4871   10.3695 C.2     1  UNL1        0.0182
     17 C          63.5139   84.3644   11.8393 C.2     1  UNL1        0.0014
     18 C          63.1531   85.2385   13.0037 C.3     1  UNL1        0.0543
     19 C          64.8828   91.8725   11.9136 C.ar    1  UNL1        0.1754
     20 C          64.2404   90.8936   12.8512 C.ar    1  UNL1        0.0401
     21 C          64.8739   90.6001   14.1787 C.ar    1  UNL1        0.0063
     22 C          66.1498   91.2856   14.5688 C.ar    1  UNL1        0.0401
     23 C          66.7922   92.2645   13.6313 C.ar    1  UNL1        0.1754
     24 C          66.1587   92.5580   12.3036 C.ar    1  UNL1        0.2061
     25 C          63.1148   91.3178   10.0925 C.3     1  UNL1        0.2526
     26 O          64.2492   92.1660   10.5860 O.3     1  UNL1       -0.4683
     27 O          68.0682   92.9499   14.0213 O.3     1  UNL1       -0.4683
     28 C          68.6773   92.6912   15.3675 C.3     1  UNL1        0.2526
     29 O          66.8011   93.5369   11.3661 O.3     1  UNL1       -0.4654
     30 C          66.3205   94.9570   11.3197 C.3     1  UNL1        0.2528
@<TRIPOS>BOND
     1    25    26    1
     2    26    19    1
     3    19    20   ar
     4    20    21   ar
     5    21     1    1
     6     1     2    2
     7     2     3    1
     8     3     4    2
     9     4     5    1
    10     5     6    2
    11     6     7    1
    12     7    10    1
    13    10    11    2
    14    11    12    1
    15    12    13    2
    16    13    14    1
    17    14    15    2
    18    15    16    1
    19    16    17    2
    20    17    18    1
    21     7     8    2
    22     8     9    1
    23    21    22   ar
    24    22    23   ar
    25    23    27    1
    26    27    28    1
    27    23    24   ar
    28    24    29    1
    29    29    30    1
    30    24    19   ar
    31     9     1    1
    32     8     4    1
    33    18    10    1
    34    17    13    1
@<TRIPOS>MOLECULE
*****
 30 34 0 0 0
SMALL
GASTEIGER

@<TRIPOS>ATOM
      1 C          64.2279   89.6238   15.1182 C.2     1  UNL1        0.0294
      2 C          63.7051   90.0867   16.4457 C.2     1  UNL1        0.2320
      3 N          63.0633   89.1063   17.3821 N.2     1  UNL1       -0.0311
      4 C          62.9443   87.6631   16.9911 C.2     1  UNL1        0.3720
      5 N          62.3650   86.4754   17.7009 N.2     1  UNL1       -0.0308
      6 C          62.5298   85.2784   16.8119 C.2     1  UNL1        0.2355
      7 C          63.2110   85.7264   15.5528 C.2     1  UNL1        0.0469
      8 C          63.4671   87.2002   15.6636 C.2     1  UNL1        0.0740
      9 C          64.1089   88.1806   14.7271 C.3     1  UNL1        0.0645
     10 C          63.5725   84.8538   14.3876 C.2     1  UNL1       -0.0140
     11 C          64.3551   83.5935   14.6087 C.2     1  UNL1       -0.0023
     12 C          64.7166   82.7209   13.4434 C.2     1  UNL1        0.0185
     13 C          64.2955   83.1086   12.0569 C.2     1  UNL1        0.0777
     14 N          64.5047   82.4530   10.7242 N.2     1  UNL1       -0.2442
     15 C          63.8513   83.3081    9.6793 C.2     1  UNL1        0.0985
     16 C          63.2384   84.4923   10.3663 C.2     1  UNL1        0.0182
     17 C          63.5129   84.3690   11.8358 C.2     1  UNL1        0.0014
     18 C          63.1514   85.2416   13.0011 C.3     1  UNL1        0.0543
     19 C          66.7798   92.2805   13.6415 C.ar    1  UNL1        0.1754
     20 C          66.1379   91.3001   14.5780 C.ar    1  UNL1        0.0401
     21 C          64.8697   90.6042   14.1816 C.ar    1  UNL1        0.0063
     22 C          64.2432   90.8885   12.8487 C.ar    1  UNL1        0.0401
     23 C          64.8850   91.8688   11.9122 C.ar    1  UNL1        0.1754
     24 C          66.1533   92.5648   12.3086 C.ar    1  UNL1        0.2061
     25 C          68.7010   92.6558   15.3497 C.3     1  UNL1        0.2526
     26 O          68.0480   92.9764   14.0379 O.3     1  UNL1       -0.4683
     27 O          64.2585   92.1532   10.5793 O.3     1  UNL1       -0.4683
     28 C          63.1090   91.3186   10.0975 C.3     1  UNL1        0.2526
     29 O          66.7950   93.5452   11.3721 O.3     1  UNL1       -0.4654
     30 C          66.3082   94.9630   11.3215 C.3     1  UNL1        0.2528
@<TRIPOS>BOND
     1    25    26    1
     2    26    19    1
     3    19    20   ar
     4    20    21   ar
     5    21     1    1
     6     1     2    2
     7     2     3    1
     8     3     4    2
     9     4     5    1
    10     5     6    2
    11     6     7    1
    12     7    10    1
    13    10    11    2
    14    11    12    1
    15    12    13    2
    16    13    14    1
    17    14    15    2
    18    15    16    1
    19    16    17    2
    20    17    18    1
    21     7     8    2
    22     8     9    1
    23    21    22   ar
    24    22    23   ar
    25    23    27    1
    26    27    28    1
    27    23    24   ar
    28    24    29    1
    29    29    30    1
    30    24    19   ar
    31     9     1    1
    32     8     4    1
    33    18    10    1
    34    17    13    1
@<TRIPOS>MOLECULE
*****
 30 34 0 0 0
SMALL
GASTEIGER

@<TRIPOS>ATOM
      1 C          63.3965   89.8262   12.9726 C.2     1  UNL1        0.0294
      2 C          63.2739   89.5937   14.4494 C.2     1  UNL1        0.2320
      3 N          64.0500   90.4454   15.4097 N.2     1  UNL1       -0.0311
      4 C          64.9487   91.5297   14.8932 C.2     1  UNL1        0.3720
      5 N          65.8304   92.5209   15.5933 N.2     1  UNL1       -0.0308
      6 C          66.4979   93.3660   14.5492 C.2     1  UNL1        0.2355
      7 C          66.0287   92.8971   13.2038 C.2     1  UNL1        0.0469
      8 C          65.0713   91.7622   13.4165 C.2     1  UNL1        0.0740
      9 C          64.2952   90.9105   12.4562 C.3     1  UNL1        0.0645
     10 C          66.4441   93.4636   11.8785 C.2     1  UNL1       -0.0140
     11 C          67.1065   92.5831   10.8608 C.2     1  UNL1       -0.0023
     12 C          67.5219   93.1496    9.5355 C.2     1  UNL1        0.0185
     13 C          67.2749   94.5968    9.2278 C.2     1  UNL1        0.0777
     14 N          67.5720   95.4303    8.0167 N.2     1  UNL1       -0.2442
     15 C          67.0932   96.8261    8.2859 C.2     1  UNL1        0.0985
     16 C          66.5002   96.8552    9.6634 C.2     1  UNL1        0.0182
     17 C          66.6125   95.4773   10.2455 C.2     1  UNL1        0.0014
     18 C          66.1971   94.9108   11.5709 C.3     1  UNL1        0.0543
     19 C          62.1015   86.6466   10.9817 C.ar    1  UNL1        0.1754
     20 C          62.8776   87.4984   11.9421 C.ar    1  UNL1        0.0401
     21 C          62.6204   88.9745   12.0123 C.ar    1  UNL1        0.0063
     22 C          61.5871   89.5989   11.1221 C.ar    1  UNL1        0.0401
     23 C          60.8110   88.7472   10.1618 C.ar    1  UNL1        0.1754
     24 C          61.0682   87.2710   10.0916 C.ar    1  UNL1        0.2061
     25 C          62.7813   84.4235   12.1418 C.3     1  UNL1        0.2526
     26 O          62.3587   85.1705   10.9116 O.3     1  UNL1       -0.4683
     27 O          59.7777   89.3716    9.2716 O.3     1  UNL1       -0.4683
     28 C          59.9426   89.3218    7.7815 C.3     1  UNL1        0.2526
     29 O          60.2921   86.4194    9.1312 O.3     1  UNL1       -0.4654
     30 C          60.9340   85.9459    7.8609 C.3     1  UNL1        0.2528
@<TRIPOS>BOND
     1    25    26    1
     2    26    19    1
     3    19    20   ar
     4    20    21   ar
     5    21     1    1
     6     1     2    2
     7     2     3    1
     8     3     4    2
     9     4     5    1
    10     5     6    2
    11     6     7    1
    12     7    10    1
    13    10    11    2
    14    11    12    1
    15    12    13    2
    16    13    14    1
    17    14    15    2
    18    15    16    1
    19    16    17    2
    20    17    18    1
    21     7     8    2
    22     8     9    1
    23    21    22   ar
    24    22    23   ar
    25    23    27    1
    26    27    28    1
    27    23    24   ar
    28    24    29    1
    29    29    30    1
    30    24    19   ar
    31     9     1    1
    32     8     4    1
    33    18    10    1
    34    17    13    1
@<TRIPOS>MOLECULE
*****
 30 34 0 0 0
SMALL
GASTEIGER

@<TRIPOS>ATOM
      1 C          62.1561   86.1123   11.0555 C.2     1  UNL1        0.0294
      2 C          61.1631   86.1609    9.9324 C.2     1  UNL1        0.2320
      3 N          60.7598   87.4807    9.3446 N.2     1  UNL1       -0.0311
      4 C          61.3495   88.7518    9.8799 C.2     1  UNL1        0.3720
      5 N          61.1449   90.1895    9.5039 N.2     1  UNL1       -0.0308
      6 C          62.0115   91.0293   10.3948 C.2     1  UNL1        0.2355
      7 C          62.7516   90.1107   11.3212 C.2     1  UNL1        0.0469
      8 C          62.3425   88.7031   11.0030 C.2     1  UNL1        0.0740
      9 C          62.7458   87.3834   11.5909 C.3     1  UNL1        0.0645
     10 C          63.7293   90.5267   12.3801 C.2     1  UNL1       -0.0140
     11 C          63.8854   89.7012   13.6227 C.2     1  UNL1       -0.0023
     12 C          64.8631   90.1172   14.6816 C.2     1  UNL1        0.0185
     13 C          65.6847   91.3586   14.4977 C.2     1  UNL1        0.0777
     14 N          66.7209   92.0136   15.3622 N.2     1  UNL1       -0.2442
     15 C          67.2052   93.2438   14.6538 C.2     1  UNL1        0.0985
     16 C          66.4684   93.3492   13.3515 C.2     1  UNL1        0.0182
     17 C          65.5286   92.1840   13.2551 C.2     1  UNL1        0.0014
     18 C          64.5509   91.7681   12.1962 C.3     1  UNL1        0.0543
     19 C          63.3933   82.3516   11.3327 C.ar    1  UNL1        0.1754
     20 C          62.9899   83.6714   10.7448 C.ar    1  UNL1        0.0401
     21 C          62.5595   84.7925   11.6434 C.ar    1  UNL1        0.0063
     22 C          62.5323   84.5940   13.1300 C.ar    1  UNL1        0.0401
     23 C          62.9357   83.2743   13.7179 C.ar    1  UNL1        0.1754
     24 C          63.3662   82.1530   12.8192 C.ar    1  UNL1        0.2061
     25 C          62.8582   80.1375   10.0831 C.3     1  UNL1        0.2526
     26 O          63.8238   81.2304   10.4340 O.3     1  UNL1       -0.4683
     27 O          62.9085   83.0758   15.2045 O.3     1  UNL1       -0.4683
     28 C          62.5990   84.2310   16.1099 C.3     1  UNL1        0.2526
     29 O          63.7695   80.8333   13.4071 O.3     1  UNL1       -0.4654
     30 C          62.7243   79.8119   13.7447 C.3     1  UNL1        0.2528
@<TRIPOS>BOND
     1    25    26    1
     2    26    19    1
     3    19    20   ar
     4    20    21   ar
     5    21     1    1
     6     1     2    2
     7     2     3    1
     8     3     4    2
     9     4     5    1
    10     5     6    2
    11     6     7    1
    12     7    10    1
    13    10    11    2
    14    11    12    1
    15    12    13    2
    16    13    14    1
    17    14    15    2
    18    15    16    1
    19    16    17    2
    20    17    18    1
    21     7     8    2
    22     8     9    1
    23    21    22   ar
    24    22    23   ar
    25    23    27    1
    26    27    28    1
    27    23    24   ar
    28    24    29    1
    29    29    30    1
    30    24    19   ar
    31     9     1    1
    32     8     4    1
    33    18    10    1
    34    17    13    1
@<TRIPOS>MOLECULE
*****
 30 34 0 0 0
SMALL
GASTEIGER

@<TRIPOS>ATOM
      1 C          62.1488   86.1067   11.0396 C.2     1  UNL1        0.0294
      2 C          61.1534   86.1518    9.9184 C.2     1  UNL1        0.2320
      3 N          60.7475   87.4698    9.3284 N.2     1  UNL1       -0.0311
      4 C          61.3371   88.7427    9.8596 C.2     1  UNL1        0.3720
      5 N          61.1303   90.1793    9.4808 N.2     1  UNL1       -0.0308
      6 C          61.9980   91.0221   10.3679 C.2     1  UNL1        0.2355
      7 C          62.7410   90.1063   11.2949 C.2     1  UNL1        0.0469
      8 C          62.3325   88.6976   10.9808 C.2     1  UNL1        0.0740
      9 C          62.7383   87.3796   11.5708 C.3     1  UNL1        0.0645
     10 C          63.7204   90.5256   12.3507 C.2     1  UNL1       -0.0140
     11 C          63.8785   89.7043   13.5958 C.2     1  UNL1       -0.0023
     12 C          64.8580   90.1236   14.6517 C.2     1  UNL1        0.0185
     13 C          65.6795   91.3643   14.4624 C.2     1  UNL1        0.0777
     14 N          66.7171   92.0220   15.3229 N.2     1  UNL1       -0.2442
     15 C          67.2004   93.2498   14.6097 C.2     1  UNL1        0.0985
     16 C          66.4614   93.3510   13.3083 C.2     1  UNL1        0.0182
     17 C          65.5214   92.1857   13.2173 C.2     1  UNL1        0.0014
     18 C          64.5419   91.7663   12.1614 C.3     1  UNL1        0.0543
     19 C          62.9366   83.2754   13.7067 C.ar    1  UNL1        0.1754
     20 C          62.5308   84.5934   13.1166 C.ar    1  UNL1        0.0401
     21 C          62.5547   84.7887   11.6296 C.ar    1  UNL1        0.0063
     22 C          62.9844   83.6659   10.7326 C.ar    1  UNL1        0.0401
     23 C          63.3903   82.3479   11.3226 C.ar    1  UNL1        0.1754
     24 C          63.3664   82.1526   12.8097 C.ar    1  UNL1        0.2061
     25 C          62.6146   84.2395   16.0977 C.3     1  UNL1        0.2526
     26 O          62.9127   83.0802   15.1937 O.3     1  UNL1       -0.4683
     27 O          63.8201   81.2251   10.4255 O.3     1  UNL1       -0.4683
     28 C          62.8507   80.1376   10.0681 C.3     1  UNL1        0.2526
     29 O          63.7723   80.8346   13.3996 O.3     1  UNL1       -0.4654
     30 C          62.7286   79.8139   13.7441 C.3     1  UNL1        0.2528
@<TRIPOS>BOND
     1    25    26    1
     2    26    19    1
     3    19    20   ar
     4    20    21   ar
     5    21     1    1
     6     1     2    2
     7     2     3    1
     8     3     4    2
     9     4     5    1
    10     5     6    2
    11     6     7    1
    12     7    10    1
    13    10    11    2
    14    11    12    1
    15    12    13    2
    16    13    14    1
    17    14    15    2
    18    15    16    1
    19    16    17    2
    20    17    18    1
    21     7     8    2
    22     8     9    1
    23    21    22   ar
    24    22    23   ar
    25    23    27    1
    26    27    28    1
    27    23    24   ar
    28    24    29    1
    29    29    30    1
    30    24    19   ar
    31     9     1    1
    32     8     4    1
    33    18    10    1
    34    17    13    1
@<TRIPOS>MOLECULE
*****
 30 34 0 0 0
SMALL
GASTEIGER

@<TRIPOS>ATOM
      1 C          62.8055   90.1902   10.9709 C.2     1  UNL1        0.0294
      2 C          61.7823   90.9639   10.1935 C.2     1  UNL1        0.2320
      3 N          60.7515   90.2380    9.3808 N.2     1  UNL1       -0.0311
      4 C          60.7438   88.7384    9.3456 C.2     1  UNL1        0.3720
      5 N          59.8574   87.7555    8.6397 N.2     1  UNL1       -0.0308
      6 C          60.3328   86.3744    8.9810 C.2     1  UNL1        0.2355
      7 C          61.5130   86.5037    9.8977 C.2     1  UNL1        0.0469
      8 C          61.7671   87.9648   10.1230 C.2     1  UNL1        0.0740
      9 C          62.7979   88.6907   10.9357 C.3     1  UNL1        0.0645
     10 C          62.3009   85.3709   10.4858 C.2     1  UNL1       -0.0140
     11 C          63.2615   84.6010    9.6288 C.2     1  UNL1       -0.0023
     12 C          64.0494   83.4681   10.2170 C.2     1  UNL1        0.0185
     13 C          63.8767   83.1052   11.6621 C.2     1  UNL1        0.0777
     14 N          64.5113   82.0459   12.5137 N.2     1  UNL1       -0.2442
     15 C          63.9429   82.1612   13.8970 C.2     1  UNL1        0.0985
     16 C          62.9570   83.2917   13.9003 C.2     1  UNL1        0.0182
     17 C          62.9161   83.8751   12.5190 C.2     1  UNL1        0.0014
     18 C          62.1282   85.0079   11.9309 C.3     1  UNL1        0.0543
     19 C          64.9620   91.4028   14.0741 C.ar    1  UNL1        0.1754
     20 C          63.9311   90.6769   13.2613 C.ar    1  UNL1        0.0401
     21 C          63.8364   90.9161   11.7836 C.ar    1  UNL1        0.0063
     22 C          64.7725   91.8811   11.1185 C.ar    1  UNL1        0.0401
     23 C          65.8033   92.6070   11.9311 C.ar    1  UNL1        0.1754
     24 C          65.8981   92.3679   13.4089 C.ar    1  UNL1        0.2061
     25 C          64.6627   92.2453   16.5134 C.3     1  UNL1        0.2526
     26 O          65.0568   91.1637   15.5518 O.3     1  UNL1       -0.4683
     27 O          66.7395   93.5721   11.2660 O.3     1  UNL1       -0.4683
     28 C          67.9946   93.0714   10.6148 C.3     1  UNL1        0.2526
     29 O          66.9290   93.0937   14.2215 O.3     1  UNL1       -0.4654
     30 C          68.0619   92.3349   14.8464 C.3     1  UNL1        0.2528
@<TRIPOS>BOND
     1    25    26    1
     2    26    19    1
     3    19    20   ar
     4    20    21   ar
     5    21     1    1
     6     1     2    2
     7     2     3    1
     8     3     4    2
     9     4     5    1
    10     5     6    2
    11     6     7    1
    12     7    10    1
    13    10    11    2
    14    11    12    1
    15    12    13    2
    16    13    14    1
    17    14    15    2
    18    15    16    1
    19    16    17    2
    20    17    18    1
    21     7     8    2
    22     8     9    1
    23    21    22   ar
    24    22    23   ar
    25    23    27    1
    26    27    28    1
    27    23    24   ar
    28    24    29    1
    29    29    30    1
    30    24    19   ar
    31     9     1    1
    32     8     4    1
    33    18    10    1
    34    17    13    1
@<TRIPOS>MOLECULE
*****
 30 34 0 0 0
SMALL
GASTEIGER

@<TRIPOS>ATOM
      1 C          63.3917   89.9516   12.9273 C.2     1  UNL1        0.0294
      2 C          63.2512   89.7371   14.4052 C.2     1  UNL1        0.2320
      3 N          64.0349   90.5837   15.3638 N.2     1  UNL1       -0.0311
      4 C          64.9592   91.6449   14.8445 C.2     1  UNL1        0.3720
      5 N          65.8537   92.6261   15.5425 N.2     1  UNL1       -0.0308
      6 C          66.5470   93.4471   14.4959 C.2     1  UNL1        0.2355
      7 C          66.0811   92.9732   13.1512 C.2     1  UNL1        0.0469
      8 C          65.0998   91.8594   13.3666 C.2     1  UNL1        0.0740
      9 C          64.3160   91.0128   12.4080 C.3     1  UNL1        0.0645
     10 C          66.5195   93.5175   11.8240 C.2     1  UNL1       -0.0140
     11 C          67.2321   92.6296   10.8474 C.2     1  UNL1       -0.0023
     12 C          67.6704   93.1739    9.5202 C.2     1  UNL1        0.0185
     13 C          67.3962   94.6063    9.1695 C.2     1  UNL1        0.0777
     14 N          67.7066   95.4173    7.9464 N.2     1  UNL1       -0.2442
     15 C          67.1858   96.8066    8.1670 C.2     1  UNL1        0.0985
     16 C          66.5536   96.8542    9.5265 C.2     1  UNL1        0.0182
     17 C          66.6836   95.4943   10.1460 C.2     1  UNL1        0.0014
     18 C          66.2452   94.9500   11.4732 C.3     1  UNL1        0.0543
     19 C          60.8036   88.8917   10.1115 C.ar    1  UNL1        0.1754
     20 C          61.5874   89.7383   11.0702 C.ar    1  UNL1        0.0401
     21 C          62.6079   89.1050   11.9687 C.ar    1  UNL1        0.0063
     22 C          62.8448   87.6250   11.9086 C.ar    1  UNL1        0.0401
     23 C          62.0610   86.7784   10.9500 C.ar    1  UNL1        0.1754
     24 C          61.0404   87.4117   10.0514 C.ar    1  UNL1        0.2061
     25 C          59.9406   89.4421    7.7236 C.3     1  UNL1        0.2526
     26 O          59.7831   89.5250    9.2130 O.3     1  UNL1       -0.4683
     27 O          62.2979   85.2984   10.8899 O.3     1  UNL1       -0.4683
     28 C          62.8780   84.5830   12.0738 C.3     1  UNL1        0.2526
     29 O          60.2567   86.5651    9.0928 O.3     1  UNL1       -0.4654
     30 C          60.9708   85.6384    8.1540 C.3     1  UNL1        0.2528
@<TRIPOS>BOND
     1    25    26    1
     2    26    19    1
     3    19    20   ar
     4    20    21   ar
     5    21     1    1
     6     1     2    2
     7     2     3    1
     8     3     4    2
     9     4     5    1
    10     5     6    2
    11     6     7    1
    12     7    10    1
    13    10    11    2
    14    11    12    1
    15    12    13    2
    16    13    14    1
    17    14    15    2
    18    15    16    1
    19    16    17    2
    20    17    18    1
    21     7     8    2
    22     8     9    1
    23    21    22   ar
    24    22    23   ar
    25    23    27    1
    26    27    28    1
    27    23    24   ar
    28    24    29    1
    29    29    30    1
    30    24    19   ar
    31     9     1    1
    32     8     4    1
    33    18    10    1
    34    17    13    1
