@<TRIPOS>MOLECULE
*****
 66 72 0 0 0
SMALL
GASTEIGER

@<TRIPOS>ATOM
      1 N          65.7951   89.5294   14.4903 N.3     1  UNL1       -0.1862
      2 C          66.1152   88.3125   15.3068 C.3     1  UNL1        0.1775
      3 C          65.3112   87.0585   15.1308 C.2     1  UNL1        0.2452
      4 O          65.6313   85.8415   15.9473 O.2     1  UNL1       -0.2732
      5 N          64.1871   87.0213   14.1384 N.am    1  UNL1       -0.2541
      6 C          63.3831   85.7673   13.9624 C.3     1  UNL1        0.1577
      7 C          62.2590   85.7302   12.9700 C.2     1  UNL1        0.2445
      8 O          61.4550   84.4761   12.7940 O.2     1  UNL1       -0.2731
      9 N          61.9388   86.9471   12.1534 N.am    1  UNL1       -0.2705
     10 C          62.7428   88.2011   12.3294 C.3     1  UNL1        0.1359
     11 C          63.8670   88.2382   13.3219 C.3     1  UNL1        0.1908
     12 N          64.6710   89.4923   13.4979 N.am    1  UNL1       -0.1863
     13 C          64.3509   90.7092   12.6814 C.2     1  UNL1        0.3191
     14 O          63.2268   90.6721   11.6889 O.2     1  UNL1       -0.2512
     15 N          65.1549   91.9632   12.8574 N.am    1  UNL1       -0.2836
     16 H          65.8927   91.9876   13.5088 H       1  UNL1        0.1513
     17 C          64.8348   93.1801   12.0409 C.3     1  UNL1        0.1177
     18 C          65.8102   93.6713   11.0126 C.ar    1  UNL1       -0.0025
     19 C          66.8265   92.7320   10.4340 C.ar    1  UNL1       -0.0026
     20 C          67.8019   93.2231    9.4057 C.ar    1  UNL1       -0.0003
     21 C          67.7610   94.6535    8.9560 C.ar    1  UNL1       -0.0000
     22 C          66.7446   95.5928    9.5346 C.ar    1  UNL1       -0.0003
     23 C          65.7692   95.1017   10.5629 C.ar    1  UNL1       -0.0026
     24 C          60.8147   86.9100   11.1610 C.3     1  UNL1        0.1217
     25 C          60.3917   88.1666   10.4595 C.ar    1  UNL1        0.0135
     26 C          60.0104   89.3786   11.2569 C.ar    1  UNL1       -0.0012
     27 C          59.5874   90.6352   10.5555 C.ar    1  UNL1       -0.0002
     28 C          59.5456   90.6798    9.0568 C.ar    1  UNL1        0.0015
     29 C          59.9269   89.4678    8.2594 C.ar    1  UNL1        0.0170
     30 C          59.9826   89.2152    6.7819 C.ar    1  UNL1        0.0186
     31 C          60.4401   87.8024    6.5702 C.ar    1  UNL1        0.0759
     32 N          60.6671   87.1820    7.9168 N.ar    1  UNL1       -0.3242
     33 C          61.1300   85.7786    8.1742 C.3     1  UNL1        0.1305
     34 C          60.3499   88.2112    8.9608 C.ar    1  UNL1        0.0575
     35 C          59.6408   90.2021    5.7052 C.ar    1  UNL1        0.0016
     36 C          58.2132   90.6053    5.4830 C.ar    1  UNL1        0.0013
     37 C          57.8715   91.5922    4.4063 C.ar    1  UNL1        0.0147
     38 C          58.9574   92.1758    3.5518 C.ar    1  UNL1        0.0503
     39 C          60.3850   91.7726    3.7739 C.ar    1  UNL1        0.0147
     40 C          60.7267   90.7857    4.8506 C.ar    1  UNL1        0.0013
     41 N          58.6156   93.1626    2.4751 N.am    1  UNL1       -0.2839
     42 C          59.5944   93.4386    1.3724 C.2     1  UNL1        0.2262
     43 O          60.9149   92.7277    1.3464 O.2     1  UNL1       -0.2748
     44 H          57.7488   93.6292    2.4921 H       1  UNL1        0.1549
     45 C          59.2525   94.4255    0.2957 C.3     1  UNL1        0.0868
     46 C          58.2369   94.0724   -0.7502 C.3     1  UNL1        0.0266
     47 C          58.1014   92.6527   -1.2150 C.3     1  UNL1        0.0691
     48 N          56.7532   91.9954   -1.2350 N.3     1  UNL1       -0.2971
     49 H          56.1578   92.5253   -0.5984 H       1  UNL1        0.1233
     50 C          56.0004   91.8671   -2.5260 C.3     1  UNL1        0.0764
     51 C          56.2393   92.8493   -3.6342 C.3     1  UNL1        0.0816
     52 C          56.9998   92.4300   -4.8571 C.2     1  UNL1        0.1525
     53 C          57.5342   93.4668   -5.8003 C.3     1  UNL1        0.0723
     54 O          57.2261   90.9738   -5.1369 O.2     1  UNL1       -0.2960
     55 C          63.7031   84.5504   14.7789 C.3     1  UNL1        0.0556
     56 C          63.3608   83.1862   14.2576 C.ar    1  UNL1       -0.0198
     57 C          64.2208   82.5468   13.2080 C.ar    1  UNL1       -0.0011
     58 C          63.8785   81.1825   12.6868 C.ar    1  UNL1        0.0363
     59 C          62.6763   80.4577   13.2151 C.ar    1  UNL1        0.1337
     60 O          62.3340   79.0935   12.6939 O.3     1  UNL1       -0.5055
     61 C          61.8162   81.0971   14.2647 C.ar    1  UNL1        0.0363
     62 C          62.1585   82.4613   14.7860 C.ar    1  UNL1       -0.0011
     63 H          62.8712   78.6941   12.0382 H       1  UNL1        0.2922
     64 C          66.5991   90.7834   14.6663 C.3     1  UNL1        0.1188
     65 C          67.1538   92.9092   16.0531 C.2     1  UNL1       -0.0034
     66 C          66.2420   91.7574   15.7497 C.2     1  UNL1       -0.0071
@<TRIPOS>BOND
     1    65    66    2
     2    66    64    1
     3    64     1    1
     4     1     2    1
     5     2     3    1
     6     3     4    2
     7     3     5   am
     8     5     6    1
     9     6    55    1
    10    55    56    1
    11    56    57   ar
    12    57    58   ar
    13    58    59   ar
    14    59    60    1
    15    59    61   ar
    16    61    62   ar
    17     6     7    1
    18     7     8    2
    19     7     9   am
    20     9    24    1
    21    24    25    1
    22    25    26   ar
    23    26    27   ar
    24    27    28   ar
    25    28    29   ar
    26    29    30   ar
    27    30    35    1
    28    35    36   ar
    29    36    37   ar
    30    37    38   ar
    31    38    41    1
    32    41    42   am
    33    42    43    2
    34    42    45    1
    35    45    46    1
    36    46    47    1
    37    47    48    1
    38    48    50    1
    39    50    51    1
    40    51    52    1
    41    52    53    1
    42    52    54    2
    43    38    39   ar
    44    39    40   ar
    45    30    31   ar
    46    31    32   ar
    47    32    33    1
    48    32    34   ar
    49     9    10    1
    50    11    10    1
    51    11    12    1
    52    12    13   am
    53    13    14    2
    54    13    15   am
    55    15    17    1
    56    17    18    1
    57    18    19   ar
    58    19    20   ar
    59    20    21   ar
    60    21    22   ar
    61    22    23   ar
    62    12     1    1
    63    23    18   ar
    64    11     5    1
    65    62    56   ar
    66    34    25   ar
    67    34    29   ar
    68    40    35   ar
    69    60    63    1
    70    41    44    1
    71    48    49    1
    72    15    16    1
@<TRIPOS>MOLECULE
*****
 66 72 0 0 0
SMALL
GASTEIGER

@<TRIPOS>ATOM
      1 N          65.6439   89.3287   14.5210 N.3     1  UNL1       -0.1862
      2 C          65.9311   88.0896   15.3161 C.3     1  UNL1        0.1775
      3 C          65.1283   86.8445   15.0807 C.2     1  UNL1        0.2452
      4 O          65.4156   85.6054   15.8759 O.2     1  UNL1       -0.2732
      5 N          64.0382   86.8386   14.0504 N.am    1  UNL1       -0.2541
      6 C          63.2354   85.5935   13.8150 C.3     1  UNL1        0.1577
      7 C          62.1454   85.5876   12.7847 C.2     1  UNL1        0.2445
      8 O          61.3426   84.3425   12.5493 O.2     1  UNL1       -0.2731
      9 N          61.8581   86.8267   11.9895 N.am    1  UNL1       -0.2705
     10 C          62.6609   88.0717   12.2249 C.3     1  UNL1        0.1359
     11 C          63.7510   88.0776   13.2553 C.3     1  UNL1        0.1908
     12 N          64.5538   89.3227   13.4906 N.am    1  UNL1       -0.1863
     13 C          64.2665   90.5618   12.6955 C.2     1  UNL1        0.3191
     14 O          63.1765   90.5558   11.6651 O.2     1  UNL1       -0.2512
     15 N          65.0694   91.8068   12.9308 N.am    1  UNL1       -0.2836
     16 H          65.7848   91.8107   13.6071 H       1  UNL1        0.1513
     17 C          64.7821   93.0459   12.1358 C.3     1  UNL1        0.1177
     18 C          65.8035   93.5717   11.1712 C.ar    1  UNL1       -0.0025
     19 C          66.7130   92.6216   10.4501 C.ar    1  UNL1       -0.0026
     20 C          67.7344   93.1474    9.4855 C.ar    1  UNL1       -0.0003
     21 C          67.8462   94.6233    9.2421 C.ar    1  UNL1       -0.0000
     22 C          66.9366   95.5734    9.9632 C.ar    1  UNL1       -0.0003
     23 C          65.9153   95.0476   10.9278 C.ar    1  UNL1       -0.0026
     24 C          60.7681   86.8207   10.9592 C.3     1  UNL1        0.1217
     25 C          60.3664   88.0990   10.2848 C.ar    1  UNL1        0.0135
     26 C          60.0061   89.3001   11.1080 C.ar    1  UNL1       -0.0012
     27 C          59.6044   90.5784   10.4338 C.ar    1  UNL1       -0.0002
     28 C          59.5630   90.6556    8.9364 C.ar    1  UNL1        0.0015
     29 C          59.9233   89.4545    8.1132 C.ar    1  UNL1        0.0170
     30 C          59.9744   89.2324    6.6306 C.ar    1  UNL1        0.0186
     31 C          60.4076   87.8169    6.3886 C.ar    1  UNL1        0.0759
     32 N          60.6243   87.1642    7.7215 N.ar    1  UNL1       -0.3242
     33 C          61.0632   85.7479    7.9488 C.3     1  UNL1        0.1305
     34 C          60.3250   88.1762    8.7874 C.ar    1  UNL1        0.0575
     35 C          59.6492   90.2477    5.5753 C.ar    1  UNL1        0.0016
     36 C          60.7492   90.8618    4.7611 C.ar    1  UNL1        0.0013
     37 C          60.4241   91.8770    3.7059 C.ar    1  UNL1        0.0147
     38 C          58.9989   92.2781    3.4648 C.ar    1  UNL1        0.0503
     39 C          57.8989   91.6640    4.2789 C.ar    1  UNL1        0.0147
     40 C          58.2241   90.6488    5.3341 C.ar    1  UNL1        0.0013
     41 N          58.6738   93.2933    2.4095 N.am    1  UNL1       -0.2839
     42 C          59.3027   93.1913    1.0514 C.2     1  UNL1        0.2262
     43 O          60.2567   92.0741    0.7487 O.2     1  UNL1       -0.2748
     44 H          58.0477   94.0266    2.6082 H       1  UNL1        0.1549
     45 C          58.9775   94.2066   -0.0037 C.3     1  UNL1        0.0868
     46 C          59.1796   93.8737   -1.4523 C.3     1  UNL1        0.0266
     47 C          60.4833   94.1947   -2.1209 C.3     1  UNL1        0.0691
     48 N          61.7720   93.7154   -1.5211 N.3     1  UNL1       -0.2971
     49 H          62.4414   93.6359   -2.2865 H       1  UNL1        0.1233
     50 C          62.4404   94.5152   -0.4425 C.3     1  UNL1        0.0764
     51 C          63.6610   93.9767    0.2432 C.3     1  UNL1        0.0816
     52 C          64.7227   94.9168    0.7321 C.2     1  UNL1        0.1525
     53 C          65.4784   95.7681   -0.2447 C.3     1  UNL1        0.0723
     54 O          65.0287   95.0056    2.1979 O.2     1  UNL1       -0.2960
     55 C          63.5227   84.3545   14.6101 C.3     1  UNL1        0.0556
     56 C          63.2637   83.0032   14.0127 C.ar    1  UNL1       -0.0198
     57 C          62.1102   82.1767   14.4990 C.ar    1  UNL1       -0.0011
     58 C          61.8512   80.8254   13.9016 C.ar    1  UNL1        0.0363
     59 C          62.7457   80.3006   12.8179 C.ar    1  UNL1        0.1337
     60 O          62.4867   78.9492   12.2205 O.3     1  UNL1       -0.5055
     61 C          63.8992   81.1270   12.3315 C.ar    1  UNL1        0.0363
     62 C          64.1582   82.4783   12.9289 C.ar    1  UNL1       -0.0011
     63 H          61.7661   78.4330   12.5243 H       1  UNL1        0.2922
     64 C          66.4467   90.5737   14.7563 C.3     1  UNL1        0.1188
     65 C          66.8090   92.7834   16.0738 C.2     1  UNL1       -0.0034
     66 C          65.9237   91.6417   15.6705 C.2     1  UNL1       -0.0071
@<TRIPOS>BOND
     1    65    66    2
     2    66    64    1
     3    64     1    1
     4     1     2    1
     5     2     3    1
     6     3     4    2
     7     3     5   am
     8     5     6    1
     9     6    55    1
    10    55    56    1
    11    56    57   ar
    12    57    58   ar
    13    58    59   ar
    14    59    60    1
    15    59    61   ar
    16    61    62   ar
    17     6     7    1
    18     7     8    2
    19     7     9   am
    20     9    24    1
    21    24    25    1
    22    25    26   ar
    23    26    27   ar
    24    27    28   ar
    25    28    29   ar
    26    29    30   ar
    27    30    35    1
    28    35    36   ar
    29    36    37   ar
    30    37    38   ar
    31    38    41    1
    32    41    42   am
    33    42    43    2
    34    42    45    1
    35    45    46    1
    36    46    47    1
    37    47    48    1
    38    48    50    1
    39    50    51    1
    40    51    52    1
    41    52    53    1
    42    52    54    2
    43    38    39   ar
    44    39    40   ar
    45    30    31   ar
    46    31    32   ar
    47    32    33    1
    48    32    34   ar
    49     9    10    1
    50    11    10    1
    51    11    12    1
    52    12    13   am
    53    13    14    2
    54    13    15   am
    55    15    17    1
    56    17    18    1
    57    18    19   ar
    58    19    20   ar
    59    20    21   ar
    60    21    22   ar
    61    22    23   ar
    62    12     1    1
    63    23    18   ar
    64    11     5    1
    65    62    56   ar
    66    34    25   ar
    67    34    29   ar
    68    40    35   ar
    69    60    63    1
    70    41    44    1
    71    48    49    1
    72    15    16    1
@<TRIPOS>MOLECULE
*****
 66 72 0 0 0
SMALL
GASTEIGER

@<TRIPOS>ATOM
      1 N          64.5975   83.2229   13.2789 N.3     1  UNL1       -0.1862
      2 C          65.2242   84.0943   14.3267 C.3     1  UNL1        0.1775
      3 C          64.8129   85.5314   14.4512 C.2     1  UNL1        0.2452
      4 O          65.4397   86.4028   15.4990 O.2     1  UNL1       -0.2732
      5 N          63.7749   86.0972   13.5280 N.am    1  UNL1       -0.2541
      6 C          63.3636   87.5343   13.6525 C.3     1  UNL1        0.1577
      7 C          62.3256   88.1000   12.7293 C.2     1  UNL1        0.2445
      8 O          61.9143   89.5372   12.8538 O.2     1  UNL1       -0.2731
      9 N          61.6988   87.2286   11.6815 N.am    1  UNL1       -0.2705
     10 C          62.1101   85.7915   11.5569 C.3     1  UNL1        0.1359
     11 C          63.1482   85.2258   12.4802 C.3     1  UNL1        0.1908
     12 N          63.5595   83.7887   12.3557 N.am    1  UNL1       -0.1863
     13 C          62.9327   82.9173   11.3079 C.2     1  UNL1        0.3191
     14 O          61.8947   83.4830   10.3846 O.2     1  UNL1       -0.2512
     15 N          63.3440   81.4801   11.1833 N.am    1  UNL1       -0.2836
     16 H          64.0253   81.1088   11.7893 H       1  UNL1        0.1513
     17 C          62.7172   80.6088   10.1356 C.3     1  UNL1        0.1177
     18 C          63.0772   79.1548   10.0557 C.ar    1  UNL1       -0.0025
     19 C          62.5344   78.1910   11.0688 C.ar    1  UNL1       -0.0026
     20 C          62.8944   76.7370   10.9890 C.ar    1  UNL1       -0.0003
     21 C          63.7972   76.2468    9.8961 C.ar    1  UNL1       -0.0000
     22 C          64.3401   77.2106    8.8829 C.ar    1  UNL1       -0.0003
     23 C          63.9801   78.6646    8.9627 C.ar    1  UNL1       -0.0026
     24 C          60.6608   87.7944   10.7582 C.3     1  UNL1        0.1217
     25 C          61.0119   88.9261    9.8384 C.ar    1  UNL1        0.0135
     26 C          62.0360   89.9402   10.2540 C.ar    1  UNL1       -0.0012
     27 C          62.3871   91.0719    9.3342 C.ar    1  UNL1       -0.0002
     28 C          61.7141   91.1895    7.9989 C.ar    1  UNL1        0.0015
     29 C          60.6899   90.1754    7.5834 C.ar    1  UNL1        0.0170
     30 C          59.8664   90.0328    6.3377 C.ar    1  UNL1        0.0186
     31 C          59.0064   88.8131    6.4877 C.ar    1  UNL1        0.0759
     32 N          59.2984   88.2018    7.8259 N.ar    1  UNL1       -0.3242
     33 C          58.6616   86.9655    8.3883 C.3     1  UNL1        0.1305
     34 C          60.3388   89.0437    8.5031 C.ar    1  UNL1        0.0575
     35 C          59.8975   90.9493    5.1505 C.ar    1  UNL1        0.0016
     36 C          58.6289   91.5775    4.6545 C.ar    1  UNL1        0.0013
     37 C          58.6601   92.4938    3.4674 C.ar    1  UNL1        0.0147
     38 C          59.9598   92.7820    2.7763 C.ar    1  UNL1        0.0503
     39 C          61.2284   92.1538    3.2723 C.ar    1  UNL1        0.0147
     40 C          61.1973   91.2375    4.4594 C.ar    1  UNL1        0.0013
     41 N          59.9909   93.6984    1.5892 N.am    1  UNL1       -0.2839
     42 C          60.2226   93.1399    0.2164 C.2     1  UNL1        0.2262
     43 O          60.4232   91.6650    0.0308 O.2     1  UNL1       -0.2748
     44 H          59.8593   94.6664    1.7110 H       1  UNL1        0.1549
     45 C          60.2537   94.0564   -0.9707 C.3     1  UNL1        0.0868
     46 C          60.1072   95.5369   -0.7791 C.3     1  UNL1        0.0266
     47 C          58.7698   96.1890   -0.9690 C.3     1  UNL1        0.0691
     48 N          57.5162   95.4488   -0.6074 N.3     1  UNL1       -0.2971
     49 H          57.1607   95.8728    0.2494 H       1  UNL1        0.1233
     50 C          56.3699   95.3983   -1.5735 C.3     1  UNL1        0.0764
     51 C          56.1077   94.1492   -2.3615 C.3     1  UNL1        0.0816
     52 C          56.9147   92.9126   -2.0975 C.2     1  UNL1        0.1525
     53 C          57.7462   92.3118   -3.1919 C.3     1  UNL1        0.0723
     54 O          56.8903   92.2769   -0.7392 O.2     1  UNL1       -0.2960
     55 C          63.9904   88.4057   14.7003 C.3     1  UNL1        0.0556
     56 C          64.6760   89.6797   14.3043 C.ar    1  UNL1       -0.0198
     57 C          64.2789   90.3837   13.0407 C.ar    1  UNL1       -0.0011
     58 C          64.9646   91.6577   12.6447 C.ar    1  UNL1        0.0363
     59 C          66.0472   92.2278   13.5124 C.ar    1  UNL1        0.1337
     60 O          66.7328   93.5018   13.1164 O.3     1  UNL1       -0.5055
     61 C          66.4443   91.5238   14.7761 C.ar    1  UNL1        0.0363
     62 C          65.7587   90.2498   15.1720 C.ar    1  UNL1       -0.0011
     63 H          66.4848   93.9415   12.3271 H       1  UNL1        0.2922
     64 C          65.0088   81.7858   13.1544 C.3     1  UNL1        0.1188
     65 C          62.8326   80.8369   14.2097 C.2     1  UNL1       -0.0034
     66 C          64.3081   80.7326   13.9604 C.2     1  UNL1       -0.0071
@<TRIPOS>BOND
     1    65    66    2
     2    66    64    1
     3    64     1    1
     4     1     2    1
     5     2     3    1
     6     3     4    2
     7     3     5   am
     8     5     6    1
     9     6    55    1
    10    55    56    1
    11    56    57   ar
    12    57    58   ar
    13    58    59   ar
    14    59    60    1
    15    59    61   ar
    16    61    62   ar
    17     6     7    1
    18     7     8    2
    19     7     9   am
    20     9    24    1
    21    24    25    1
    22    25    26   ar
    23    26    27   ar
    24    27    28   ar
    25    28    29   ar
    26    29    30   ar
    27    30    35    1
    28    35    36   ar
    29    36    37   ar
    30    37    38   ar
    31    38    41    1
    32    41    42   am
    33    42    43    2
    34    42    45    1
    35    45    46    1
    36    46    47    1
    37    47    48    1
    38    48    50    1
    39    50    51    1
    40    51    52    1
    41    52    53    1
    42    52    54    2
    43    38    39   ar
    44    39    40   ar
    45    30    31   ar
    46    31    32   ar
    47    32    33    1
    48    32    34   ar
    49     9    10    1
    50    11    10    1
    51    11    12    1
    52    12    13   am
    53    13    14    2
    54    13    15   am
    55    15    17    1
    56    17    18    1
    57    18    19   ar
    58    19    20   ar
    59    20    21   ar
    60    21    22   ar
    61    22    23   ar
    62    12     1    1
    63    23    18   ar
    64    11     5    1
    65    62    56   ar
    66    34    25   ar
    67    34    29   ar
    68    40    35   ar
    69    60    63    1
    70    41    44    1
    71    48    49    1
    72    15    16    1
@<TRIPOS>MOLECULE
*****
 66 72 0 0 0
SMALL
GASTEIGER

@<TRIPOS>ATOM
      1 N          64.5470   83.1668   13.3025 N.3     1  UNL1       -0.1862
      2 C          65.1708   84.0375   14.3526 C.3     1  UNL1        0.1775
      3 C          64.7700   85.4785   14.4672 C.2     1  UNL1        0.2452
      4 O          65.3938   86.3492   15.5173 O.2     1  UNL1       -0.2732
      5 N          63.7454   86.0486   13.5318 N.am    1  UNL1       -0.2541
      6 C          63.3446   87.4895   13.6464 C.3     1  UNL1        0.1577
      7 C          62.3200   88.0597   12.7110 C.2     1  UNL1        0.2445
      8 O          61.9192   89.5006   12.8256 O.2     1  UNL1       -0.2731
      9 N          61.6962   87.1890   11.6608 N.am    1  UNL1       -0.2705
     10 C          62.0970   85.7481   11.5462 C.3     1  UNL1        0.1359
     11 C          63.1216   85.1779   12.4817 C.3     1  UNL1        0.1908
     12 N          63.5224   83.7370   12.3671 N.am    1  UNL1       -0.1863
     13 C          62.8986   82.8663   11.3169 C.2     1  UNL1        0.3191
     14 O          61.8740   83.4364   10.3815 O.2     1  UNL1       -0.2512
     15 N          63.2994   81.4253   11.2023 N.am    1  UNL1       -0.2836
     16 H          63.9719   81.0511   11.8163 H       1  UNL1        0.1513
     17 C          62.6756   80.5546   10.1522 C.3     1  UNL1        0.1177
     18 C          63.0723   79.1123   10.0412 C.ar    1  UNL1       -0.0025
     19 C          62.5195   78.1060   11.0064 C.ar    1  UNL1       -0.0026
     20 C          62.9161   76.6636   10.8954 C.ar    1  UNL1       -0.0003
     21 C          63.8657   76.2276    9.8192 C.ar    1  UNL1       -0.0000
     22 C          64.4186   77.2339    8.8540 C.ar    1  UNL1       -0.0003
     23 C          64.0219   78.6763    8.9650 C.ar    1  UNL1       -0.0026
     24 C          60.6716   87.7591   10.7254 C.3     1  UNL1        0.1217
     25 C          61.0344   88.8987    9.8198 C.ar    1  UNL1        0.0135
     26 C          62.0513   89.9105   10.2582 C.ar    1  UNL1       -0.0012
     27 C          62.4141   91.0500    9.3528 C.ar    1  UNL1       -0.0002
     28 C          61.7602   91.1776    8.0089 C.ar    1  UNL1        0.0015
     29 C          60.7433   90.1657    7.5705 C.ar    1  UNL1        0.0170
     30 C          59.9381   90.0322    6.3121 C.ar    1  UNL1        0.0186
     31 C          59.0775   88.8103    6.4398 C.ar    1  UNL1        0.0759
     32 N          59.3510   88.1886    7.7771 N.ar    1  UNL1       -0.3242
     33 C          58.7078   86.9471    8.3203 C.3     1  UNL1        0.1305
     34 C          60.3805   89.0262    8.4760 C.ar    1  UNL1        0.0575
     35 C          59.9851   90.9583    5.1329 C.ar    1  UNL1        0.0016
     36 C          61.2921   91.2420    4.4537 C.ar    1  UNL1        0.0013
     37 C          61.3390   92.1679    3.2746 C.ar    1  UNL1        0.0147
     38 C          60.0791   92.8101    2.7746 C.ar    1  UNL1        0.0503
     39 C          58.7721   92.5264    3.4537 C.ar    1  UNL1        0.0147
     40 C          58.7251   91.6005    4.6329 C.ar    1  UNL1        0.0013
     41 N          60.1261   93.7361    1.5954 N.am    1  UNL1       -0.2839
     42 C          60.2333   93.1779    0.2072 C.2     1  UNL1        0.2262
     43 O          60.2934   91.6938   -0.0018 O.2     1  UNL1       -0.2748
     44 H          60.0867   94.7102    1.7326 H       1  UNL1        0.1549
     45 C          60.2803   94.1039   -0.9718 C.3     1  UNL1        0.0868
     46 C          60.6776   93.5812   -2.3205 C.3     1  UNL1        0.0266
     47 C          62.1083   93.6609   -2.7641 C.3     1  UNL1        0.0691
     48 N          63.2098   93.6710   -1.7459 N.3     1  UNL1       -0.2971
     49 H          63.8411   92.9071   -1.9874 H       1  UNL1        0.1233
     50 C          64.0585   94.8954   -1.5714 C.3     1  UNL1        0.0764
     51 C          64.9500   95.0253   -0.3720 C.3     1  UNL1        0.0816
     52 C          64.5107   94.4741    0.9521 C.2     1  UNL1        0.1525
     53 C          64.8208   95.2209    2.2155 C.3     1  UNL1        0.0723
     54 O          63.7614   93.1761    1.0129 O.2     1  UNL1       -0.2960
     55 C          63.9684   88.3603   14.6965 C.3     1  UNL1        0.0556
     56 C          64.6523   89.6361   14.3036 C.ar    1  UNL1       -0.0198
     57 C          65.8233   90.1347   15.0974 C.ar    1  UNL1       -0.0011
     58 C          66.5072   91.4105   14.7045 C.ar    1  UNL1        0.0363
     59 C          66.0202   92.1879   13.5178 C.ar    1  UNL1        0.1337
     60 O          66.7041   93.4638   13.1249 O.3     1  UNL1       -0.5055
     61 C          64.8492   91.6894   12.7238 C.ar    1  UNL1        0.0363
     62 C          64.1652   90.4135   13.1167 C.ar    1  UNL1       -0.0011
     63 H          67.4356   93.7752   13.6208 H       1  UNL1        0.2922
     64 C          64.9478   81.7259   13.1879 C.3     1  UNL1        0.1188
     65 C          62.7445   80.8706   14.2666 C.2     1  UNL1       -0.0034
     66 C          64.1984   80.6758   13.9531 C.2     1  UNL1       -0.0071
@<TRIPOS>BOND
     1    65    66    2
     2    66    64    1
     3    64     1    1
     4     1     2    1
     5     2     3    1
     6     3     4    2
     7     3     5   am
     8     5     6    1
     9     6    55    1
    10    55    56    1
    11    56    57   ar
    12    57    58   ar
    13    58    59   ar
    14    59    60    1
    15    59    61   ar
    16    61    62   ar
    17     6     7    1
    18     7     8    2
    19     7     9   am
    20     9    24    1
    21    24    25    1
    22    25    26   ar
    23    26    27   ar
    24    27    28   ar
    25    28    29   ar
    26    29    30   ar
    27    30    35    1
    28    35    36   ar
    29    36    37   ar
    30    37    38   ar
    31    38    41    1
    32    41    42   am
    33    42    43    2
    34    42    45    1
    35    45    46    1
    36    46    47    1
    37    47    48    1
    38    48    50    1
    39    50    51    1
    40    51    52    1
    41    52    53    1
    42    52    54    2
    43    38    39   ar
    44    39    40   ar
    45    30    31   ar
    46    31    32   ar
    47    32    33    1
    48    32    34   ar
    49     9    10    1
    50    11    10    1
    51    11    12    1
    52    12    13   am
    53    13    14    2
    54    13    15   am
    55    15    17    1
    56    17    18    1
    57    18    19   ar
    58    19    20   ar
    59    20    21   ar
    60    21    22   ar
    61    22    23   ar
    62    12     1    1
    63    23    18   ar
    64    11     5    1
    65    62    56   ar
    66    34    25   ar
    67    34    29   ar
    68    40    35   ar
    69    60    63    1
    70    41    44    1
    71    48    49    1
    72    15    16    1
@<TRIPOS>MOLECULE
*****
 66 72 0 0 0
SMALL
GASTEIGER

@<TRIPOS>ATOM
      1 N          64.5374   83.1031   13.2949 N.3     1  UNL1       -0.1862
      2 C          65.1529   83.9685   14.3543 C.3     1  UNL1        0.1775
      3 C          64.7436   85.4061   14.4798 C.2     1  UNL1        0.2452
      4 O          65.3591   86.2714   15.5392 O.2     1  UNL1       -0.2732
      5 N          63.7188   85.9784   13.5459 N.am    1  UNL1       -0.2541
      6 C          63.3095   87.4160   13.6713 C.3     1  UNL1        0.1577
      7 C          62.2847   87.9882   12.7374 C.2     1  UNL1        0.2445
      8 O          61.8754   89.4258   12.8629 O.2     1  UNL1       -0.2731
      9 N          61.6691   87.1229   11.6780 N.am    1  UNL1       -0.2705
     10 C          62.0784   85.6853   11.5525 C.3     1  UNL1        0.1359
     11 C          63.1033   85.1130   12.4865 C.3     1  UNL1        0.1908
     12 N          63.5126   83.6754   12.3610 N.am    1  UNL1       -0.1863
     13 C          62.8971   82.8101   11.3016 C.2     1  UNL1        0.3191
     14 O          61.8723   83.3823   10.3677 O.2     1  UNL1       -0.2512
     15 N          63.3064   81.3725   11.1761 N.am    1  UNL1       -0.2836
     16 H          63.9790   80.9969   11.7891 H       1  UNL1        0.1513
     17 C          62.6909   80.5071   10.1167 C.3     1  UNL1        0.1177
     18 C          63.0970   79.0684    9.9941 C.ar    1  UNL1       -0.0025
     19 C          64.0702   78.6517    8.9314 C.ar    1  UNL1       -0.0026
     20 C          64.4763   77.2130    8.8088 C.ar    1  UNL1       -0.0003
     21 C          63.9093   76.1908    9.7488 C.ar    1  UNL1       -0.0000
     22 C          62.9360   76.6074   10.8115 C.ar    1  UNL1       -0.0003
     23 C          62.5299   78.0462   10.9341 C.ar    1  UNL1       -0.0026
     24 C          60.6443   87.6952   10.7441 C.3     1  UNL1        0.1217
     25 C          61.0034   88.8446    9.8497 C.ar    1  UNL1        0.0135
     26 C          62.0235   89.8505   10.2943 C.ar    1  UNL1       -0.0012
     27 C          62.3827   91.0000    9.4000 C.ar    1  UNL1       -0.0002
     28 C          61.7217   91.1435    8.0612 C.ar    1  UNL1        0.0015
     29 C          60.7016   90.1376    7.6166 C.ar    1  UNL1        0.0170
     30 C          59.8896   90.0193    6.3610 C.ar    1  UNL1        0.0186
     31 C          59.0286   88.7968    6.4793 C.ar    1  UNL1        0.0759
     32 N          59.3085   88.1595    7.8080 N.ar    1  UNL1       -0.3242
     33 C          58.6670   86.9125    8.3403 C.3     1  UNL1        0.1305
     34 C          60.3425   88.9882    8.5109 C.ar    1  UNL1        0.0575
     35 C          59.9312   90.9588    5.1923 C.ar    1  UNL1        0.0016
     36 C          61.2316   91.2337    4.4970 C.ar    1  UNL1        0.0013
     37 C          61.2732   92.1730    3.3283 C.ar    1  UNL1        0.0147
     38 C          60.0145   92.8375    2.8549 C.ar    1  UNL1        0.0503
     39 C          58.7141   92.5626    3.5502 C.ar    1  UNL1        0.0147
     40 C          58.6725   91.6232    4.7189 C.ar    1  UNL1        0.0013
     41 N          60.0562   93.7768    1.6862 N.am    1  UNL1       -0.2839
     42 C          60.1373   93.2341    0.2902 C.2     1  UNL1        0.2262
     43 O          60.1767   91.7520    0.0628 O.2     1  UNL1       -0.2748
     44 H          60.0303   94.7496    1.8354 H       1  UNL1        0.1549
     45 C          60.1789   94.1735   -0.8785 C.3     1  UNL1        0.0868
     46 C          61.4293   94.9475   -1.1743 C.3     1  UNL1        0.0266
     47 C          62.7663   94.2723   -1.0929 C.3     1  UNL1        0.0691
     48 N          63.1049   93.1619   -2.0430 N.3     1  UNL1       -0.2971
     49 H          62.2486   92.6271   -2.1880 H       1  UNL1        0.1233
     50 C          63.6528   93.4793   -3.4027 C.3     1  UNL1        0.0764
     51 C          64.3164   92.4057   -4.2132 C.3     1  UNL1        0.0816
     52 C          64.6526   92.6532   -5.6539 C.2     1  UNL1        0.1525
     53 C          63.6100   93.1982   -6.5845 C.3     1  UNL1        0.0723
     54 O          66.0314   92.3557   -6.1641 O.2     1  UNL1       -0.2960
     55 C          63.9250   88.2813   14.7307 C.3     1  UNL1        0.0556
     56 C          64.4567   89.6381   14.3754 C.ar    1  UNL1       -0.0198
     57 C          65.0307   90.5218   15.4429 C.ar    1  UNL1       -0.0011
     58 C          65.5625   91.8787   15.0875 C.ar    1  UNL1        0.0363
     59 C          65.5203   92.3518   13.6648 C.ar    1  UNL1        0.1337
     60 O          66.0521   93.7086   13.3095 O.3     1  UNL1       -0.5055
     61 C          64.9463   91.4680   12.5972 C.ar    1  UNL1        0.0363
     62 C          64.4145   90.1112   12.9525 C.ar    1  UNL1       -0.0011
     63 H          66.4107   94.2606   13.9763 H       1  UNL1        0.2922
     64 C          64.9468   81.6655   13.1695 C.3     1  UNL1        0.1188
     65 C          62.7770   80.5516   14.0645 C.2     1  UNL1       -0.0034
     66 C          64.2744   80.6184   14.0070 C.2     1  UNL1       -0.0071
@<TRIPOS>BOND
     1    65    66    2
     2    66    64    1
     3    64     1    1
     4     1     2    1
     5     2     3    1
     6     3     4    2
     7     3     5   am
     8     5     6    1
     9     6    55    1
    10    55    56    1
    11    56    57   ar
    12    57    58   ar
    13    58    59   ar
    14    59    60    1
    15    59    61   ar
    16    61    62   ar
    17     6     7    1
    18     7     8    2
    19     7     9   am
    20     9    24    1
    21    24    25    1
    22    25    26   ar
    23    26    27   ar
    24    27    28   ar
    25    28    29   ar
    26    29    30   ar
    27    30    35    1
    28    35    36   ar
    29    36    37   ar
    30    37    38   ar
    31    38    41    1
    32    41    42   am
    33    42    43    2
    34    42    45    1
    35    45    46    1
    36    46    47    1
    37    47    48    1
    38    48    50    1
    39    50    51    1
    40    51    52    1
    41    52    53    1
    42    52    54    2
    43    38    39   ar
    44    39    40   ar
    45    30    31   ar
    46    31    32   ar
    47    32    33    1
    48    32    34   ar
    49     9    10    1
    50    11    10    1
    51    11    12    1
    52    12    13   am
    53    13    14    2
    54    13    15   am
    55    15    17    1
    56    17    18    1
    57    18    19   ar
    58    19    20   ar
    59    20    21   ar
    60    21    22   ar
    61    22    23   ar
    62    12     1    1
    63    23    18   ar
    64    11     5    1
    65    62    56   ar
    66    34    25   ar
    67    34    29   ar
    68    40    35   ar
    69    60    63    1
    70    41    44    1
    71    48    49    1
    72    15    16    1
