@<TRIPOS>MOLECULE
*****
 17 18 0 0 0
SMALL
GASTEIGER

@<TRIPOS>ATOM
      1 C          62.6674   84.7226   10.9510 C.2     1  UNL1        0.0435
      2 C          62.5451   85.2444    9.5501 C.2     1  UNL1        0.0034
      3 C          61.7684   86.4995    9.2824 C.ar    1  UNL1        0.0009
      4 C          60.5806   86.4656    8.3669 C.ar    1  UNL1        0.0001
      5 C          59.8040   87.7206    8.0993 C.ar    1  UNL1        0.0009
      6 C          60.2151   89.0095    8.7470 C.ar    1  UNL1        0.0114
      7 C          61.4028   89.0435    9.6625 C.ar    1  UNL1        0.0577
      8 CL         61.8139   90.3324   10.3102 Cl      1  UNL1       -0.0822
      9 C          62.1795   87.7884    9.9301 C.ar    1  UNL1        0.0114
     10 O          64.7244   83.2064   10.4821 O.2     1  UNL1       -0.2850
     11 C          63.4441   83.4675   11.2187 C.2     1  UNL1        0.2111
     12 C          62.9405   82.4737   12.2230 C.ar    1  UNL1        0.0961
     13 C          62.8992   80.9848   12.0457 C.ar    1  UNL1        0.0218
     14 C          62.3230   80.3851   13.2940 C.ar    1  UNL1        0.0200
     15 C          62.0080   81.5034   14.2429 C.ar    1  UNL1        0.0725
     16 N          62.3897   82.7942   13.5809 N.ar    1  UNL1       -0.3495
     17 H          62.2953   83.6938   13.9695 H       1  UNL1        0.1661
@<TRIPOS>BOND
     1    10    11    2
     2    11     1    1
     3     1     2    2
     4     2     3    1
     5     3     4   ar
     6     4     5   ar
     7     5     6   ar
     8     6     7   ar
     9     7     8    1
    10     7     9   ar
    11    11    12    1
    12    12    13   ar
    13    13    14   ar
    14    14    15   ar
    15    15    16   ar
    16     9     3   ar
    17    16    12   ar
    18    16    17    1
@<TRIPOS>MOLECULE
*****
 17 18 0 0 0
SMALL
GASTEIGER

@<TRIPOS>ATOM
      1 C          63.1284   84.4862   10.3739 C.2     1  UNL1        0.0435
      2 C          62.2231   85.4376   11.0986 C.2     1  UNL1        0.0034
      3 C          61.6572   86.6276   10.3818 C.ar    1  UNL1        0.0009
      4 C          62.1363   88.0071   10.7243 C.ar    1  UNL1        0.0001
      5 C          61.5704   89.1970   10.0075 C.ar    1  UNL1        0.0009
      6 C          60.5254   89.0074    8.9482 C.ar    1  UNL1        0.0114
      7 C          60.0463   87.6279    8.6057 C.ar    1  UNL1        0.0577
      8 CL         59.0013   87.4383    7.5465 Cl      1  UNL1       -0.0822
      9 C          60.6122   86.4380    9.3225 C.ar    1  UNL1        0.0114
     10 O          64.8602   82.5541   10.5077 O.2     1  UNL1       -0.2850
     11 C          63.6943   83.2962   11.0907 C.2     1  UNL1        0.2111
     12 C          63.0943   82.8484   12.3905 C.ar    1  UNL1        0.0961
     13 C          62.2937   81.5987   12.6078 C.ar    1  UNL1        0.0218
     14 C          61.8942   81.5496   14.0528 C.ar    1  UNL1        0.0200
     15 C          62.4478   82.7690   14.7286 C.ar    1  UNL1        0.0725
     16 N          63.1895   83.5717   13.7012 N.ar    1  UNL1       -0.3495
     17 H          63.6568   84.4237   13.8593 H       1  UNL1        0.1661
@<TRIPOS>BOND
     1    10    11    2
     2    11     1    1
     3     1     2    2
     4     2     3    1
     5     3     4   ar
     6     4     5   ar
     7     5     6   ar
     8     6     7   ar
     9     7     8    1
    10     7     9   ar
    11    11    12    1
    12    12    13   ar
    13    13    14   ar
    14    14    15   ar
    15    15    16   ar
    16     9     3   ar
    17    16    12   ar
    18    16    17    1
@<TRIPOS>MOLECULE
*****
 17 18 0 0 0
SMALL
GASTEIGER

@<TRIPOS>ATOM
      1 C          61.0885   86.0102    9.5920 C.2     1  UNL1        0.0435
      2 C          61.6756   85.8883   10.9669 C.2     1  UNL1        0.0034
      3 C          62.6171   84.7642   11.2836 C.ar    1  UNL1        0.0009
      4 C          63.3863   84.0973   10.1821 C.ar    1  UNL1        0.0001
      5 C          64.3277   82.9733   10.4988 C.ar    1  UNL1        0.0009
      6 C          64.4997   82.5161   11.9170 C.ar    1  UNL1        0.0114
      7 C          63.7305   83.1830   13.0185 C.ar    1  UNL1        0.0577
      8 CL         63.9026   82.7259   14.4368 Cl      1  UNL1       -0.0822
      9 C          62.7891   84.3071   12.7018 C.ar    1  UNL1        0.0114
     10 O          59.3414   87.1040    8.0105 O.2     1  UNL1       -0.2850
     11 C          60.1471   87.1343    9.2754 C.2     1  UNL1        0.2111
     12 C          60.0115   88.2886   10.2235 C.ar    1  UNL1        0.0961
     13 C          60.3046   89.7259    9.9103 C.ar    1  UNL1        0.0218
     14 C          60.0332   90.5340   11.1446 C.ar    1  UNL1        0.0200
     15 C          59.5724   89.5960   12.2207 C.ar    1  UNL1        0.0725
     16 N          59.5590   88.2083   11.6514 N.ar    1  UNL1       -0.3495
     17 H          59.2988   87.3887   12.1308 H       1  UNL1        0.1661
@<TRIPOS>BOND
     1    10    11    2
     2    11     1    1
     3     1     2    2
     4     2     3    1
     5     3     4   ar
     6     4     5   ar
     7     5     6   ar
     8     6     7   ar
     9     7     8    1
    10     7     9   ar
    11    11    12    1
    12    12    13   ar
    13    13    14   ar
    14    14    15   ar
    15    15    16   ar
    16     9     3   ar
    17    16    12   ar
    18    16    17    1
@<TRIPOS>MOLECULE
*****
 17 18 0 0 0
SMALL
GASTEIGER

@<TRIPOS>ATOM
      1 C          63.9398   90.4782   14.4582 C.2     1  UNL1        0.0435
      2 C          63.5542   91.0059   13.1081 C.2     1  UNL1        0.0034
      3 C          63.0357   90.0697   12.0570 C.ar    1  UNL1        0.0009
      4 C          62.5155   90.6131   10.7593 C.ar    1  UNL1        0.0001
      5 C          61.9970   89.6769    9.7083 C.ar    1  UNL1        0.0009
      6 C          61.9987   88.1973    9.9550 C.ar    1  UNL1        0.0114
      7 C          62.5189   87.6539   11.2527 C.ar    1  UNL1        0.0577
      8 CL         62.5205   86.1744   11.4994 Cl      1  UNL1       -0.0822
      9 C          63.0374   88.5901   12.3037 C.ar    1  UNL1        0.0114
     10 O          63.5791   91.8149   16.6567 O.2     1  UNL1       -0.2850
     11 C          64.4583   91.4145   15.5093 C.2     1  UNL1        0.2111
     12 C          65.8560   91.9502   15.4129 C.ar    1  UNL1        0.0961
     13 C          66.8891   91.5420   14.4049 C.ar    1  UNL1        0.0218
     14 C          68.1377   92.3277   14.6765 C.ar    1  UNL1        0.0200
     15 C          67.8762   93.2215   15.8525 C.ar    1  UNL1        0.0725
     16 N          66.4661   92.9882   16.3076 N.ar    1  UNL1       -0.3495
     17 H          66.0194   93.4374   17.0612 H       1  UNL1        0.1661
@<TRIPOS>BOND
     1    10    11    2
     2    11     1    1
     3     1     2    2
     4     2     3    1
     5     3     4   ar
     6     4     5   ar
     7     5     6   ar
     8     6     7   ar
     9     7     8    1
    10     7     9   ar
    11    11    12    1
    12    12    13   ar
    13    13    14   ar
    14    14    15   ar
    15    15    16   ar
    16     9     3   ar
    17    16    12   ar
    18    16    17    1
@<TRIPOS>MOLECULE
*****
 17 18 0 0 0
SMALL
GASTEIGER

@<TRIPOS>ATOM
      1 C          62.5322   88.4886   10.8224 C.2     1  UNL1        0.0435
      2 C          62.3369   89.7070   11.6751 C.2     1  UNL1        0.0034
      3 C          63.4641   90.6785   11.8645 C.ar    1  UNL1        0.0009
      4 C          63.9134   91.5383   10.7205 C.ar    1  UNL1        0.0001
      5 C          65.0405   92.5097   10.9099 C.ar    1  UNL1        0.0009
      6 C          65.7184   92.6212   12.2433 C.ar    1  UNL1        0.0114
      7 C          65.2692   91.7614   13.3873 C.ar    1  UNL1        0.0577
      8 CL         65.9470   91.8729   14.7208 Cl      1  UNL1       -0.0822
      9 C          64.1420   90.7900   13.1979 C.ar    1  UNL1        0.0114
     10 O          61.1268   86.4780   11.6784 O.2     1  UNL1       -0.2850
     11 C          61.4050   87.5171   10.6330 C.2     1  UNL1        0.2111
     12 C          60.5561   87.5848    9.3982 C.ar    1  UNL1        0.0961
     13 C          60.0525   86.4127    8.6092 C.ar    1  UNL1        0.0218
     14 C          59.2469   86.9399    7.4590 C.ar    1  UNL1        0.0200
     15 C          59.2526   88.4379    7.5371 C.ar    1  UNL1        0.0725
     16 N          60.0617   88.8364    8.7356 N.ar    1  UNL1       -0.3495
     17 H          60.2375   89.7577    9.0348 H       1  UNL1        0.1661
@<TRIPOS>BOND
     1    10    11    2
     2    11     1    1
     3     1     2    2
     4     2     3    1
     5     3     4   ar
     6     4     5   ar
     7     5     6   ar
     8     6     7   ar
     9     7     8    1
    10     7     9   ar
    11    11    12    1
    12    12    13   ar
    13    13    14   ar
    14    14    15   ar
    15    15    16   ar
    16     9     3   ar
    17    16    12   ar
    18    16    17    1
@<TRIPOS>MOLECULE
*****
 17 18 0 0 0
SMALL
GASTEIGER

@<TRIPOS>ATOM
      1 C          64.0498   86.6541   14.1164 C.2     1  UNL1        0.0435
      2 C          64.2595   87.9750   14.7956 C.2     1  UNL1        0.0034
      3 C          64.3146   89.2353   13.9840 C.ar    1  UNL1        0.0009
      4 C          65.1828   90.3753   14.4272 C.ar    1  UNL1        0.0001
      5 C          65.2379   91.6356   13.6156 C.ar    1  UNL1        0.0009
      6 C          64.4249   91.7558   12.3609 C.ar    1  UNL1        0.0114
      7 C          63.5567   90.6157   11.9177 C.ar    1  UNL1        0.0577
      8 CL         62.7436   90.7359   10.6629 Cl      1  UNL1       -0.0822
      9 C          63.5016   89.3555   12.7292 C.ar    1  UNL1        0.0114
     10 O          63.9771   85.4667   16.4261 O.2     1  UNL1       -0.2850
     11 C          63.9946   85.3938   14.9280 C.2     1  UNL1        0.2111
     12 C          63.9570   84.0607   14.2414 C.ar    1  UNL1        0.0961
     13 C          64.2982   83.7991   12.8044 C.ar    1  UNL1        0.0218
     14 C          64.1237   82.3319   12.5462 C.ar    1  UNL1        0.0200
     15 C          63.6745   81.6866   13.8237 C.ar    1  UNL1        0.0725
     16 N          63.5715   82.7551   14.8714 N.ar    1  UNL1       -0.3495
     17 H          63.2988   82.6227   15.8080 H       1  UNL1        0.1661
@<TRIPOS>BOND
     1    10    11    2
     2    11     1    1
     3     1     2    2
     4     2     3    1
     5     3     4   ar
     6     4     5   ar
     7     5     6   ar
     8     6     7   ar
     9     7     8    1
    10     7     9   ar
    11    11    12    1
    12    12    13   ar
    13    13    14   ar
    14    14    15   ar
    15    15    16   ar
    16     9     3   ar
    17    16    12   ar
    18    16    17    1
@<TRIPOS>MOLECULE
*****
 17 18 0 0 0
SMALL
GASTEIGER

@<TRIPOS>ATOM
      1 C          61.9680   86.6169   10.4722 C.2     1  UNL1        0.0435
      2 C          62.1818   85.7000   11.6399 C.2     1  UNL1        0.0034
      3 C          62.7586   84.3323   11.4238 C.ar    1  UNL1        0.0009
      4 C          63.5750   84.0478   10.1981 C.ar    1  UNL1        0.0001
      5 C          64.1518   82.6801    9.9820 C.ar    1  UNL1        0.0009
      6 C          63.9123   81.5970   10.9917 C.ar    1  UNL1        0.0114
      7 C          63.0959   81.8815   12.2175 C.ar    1  UNL1        0.0577
      8 CL         62.8564   80.7984   13.2272 Cl      1  UNL1       -0.0822
      9 C          62.5191   83.2492   12.4335 C.ar    1  UNL1        0.0114
     10 O          59.9356   88.2348   10.4255 O.2     1  UNL1       -0.2850
     11 C          61.3911   87.9846   10.6883 C.2     1  UNL1        0.2111
     12 C          62.2696   89.1021   11.1672 C.ar    1  UNL1        0.0961
     13 C          62.7001   90.2921   10.3619 C.ar    1  UNL1        0.0218
     14 C          63.5685   91.1513   11.2324 C.ar    1  UNL1        0.0200
     15 C          63.6747   90.4922   12.5757 C.ar    1  UNL1        0.0725
     16 N          62.8720   89.2258   12.5353 N.ar    1  UNL1       -0.3495
     17 H          62.7600   88.5877   13.2767 H       1  UNL1        0.1661
@<TRIPOS>BOND
     1    10    11    2
     2    11     1    1
     3     1     2    2
     4     2     3    1
     5     3     4   ar
     6     4     5   ar
     7     5     6   ar
     8     6     7   ar
     9     7     8    1
    10     7     9   ar
    11    11    12    1
    12    12    13   ar
    13    13    14   ar
    14    14    15   ar
    15    15    16   ar
    16     9     3   ar
    17    16    12   ar
    18    16    17    1
@<TRIPOS>MOLECULE
*****
 17 18 0 0 0
SMALL
GASTEIGER

@<TRIPOS>ATOM
      1 C          64.1657   91.4046   11.4539 C.2     1  UNL1        0.0435
      2 C          65.0553   92.4879   11.9878 C.2     1  UNL1        0.0034
      3 C          66.0194   93.1850   11.0741 C.ar    1  UNL1        0.0009
      4 C          65.9754   94.6779   10.9353 C.ar    1  UNL1        0.0001
      5 C          66.9394   95.3749   10.0216 C.ar    1  UNL1        0.0009
      6 C          67.9475   94.5790    9.2469 C.ar    1  UNL1        0.0114
      7 C          67.9916   93.0861    9.3857 C.ar    1  UNL1        0.0577
      8 CL         68.9997   92.2902    8.6109 Cl      1  UNL1       -0.0822
      9 C          67.0275   92.3891   10.2993 C.ar    1  UNL1        0.0114
     10 O          63.4613   90.6703   13.8445 O.2     1  UNL1       -0.2850
     11 C          63.2017   90.7075   12.3676 C.2     1  UNL1        0.2111
     12 C          61.9780   90.0477   11.8043 C.ar    1  UNL1        0.0961
     13 C          61.8080   89.5612   10.3957 C.ar    1  UNL1        0.0218
     14 C          60.4345   88.9713   10.2716 C.ar    1  UNL1        0.0200
     15 C          59.7555   89.0933   11.6036 C.ar    1  UNL1        0.0725
     16 N          60.7095   89.7585   12.5509 N.ar    1  UNL1       -0.3495
     17 H          60.5339   89.9685   13.4966 H       1  UNL1        0.1661
@<TRIPOS>BOND
     1    10    11    2
     2    11     1    1
     3     1     2    2
     4     2     3    1
     5     3     4   ar
     6     4     5   ar
     7     5     6   ar
     8     6     7   ar
     9     7     8    1
    10     7     9   ar
    11    11    12    1
    12    12    13   ar
    13    13    14   ar
    14    14    15   ar
    15    15    16   ar
    16     9     3   ar
    17    16    12   ar
    18    16    17    1
@<TRIPOS>MOLECULE
*****
 17 18 0 0 0
SMALL
GASTEIGER

@<TRIPOS>ATOM
      1 C          64.1930   86.8269   14.1814 C.2     1  UNL1        0.0435
      2 C          64.1311   88.1683   14.8499 C.2     1  UNL1        0.0034
      3 C          64.3014   89.4189   14.0392 C.ar    1  UNL1        0.0009
      4 C          63.5033   89.6136   12.7842 C.ar    1  UNL1        0.0001
      5 C          63.6736   90.8642   11.9736 C.ar    1  UNL1        0.0009
      6 C          64.6420   91.9200   12.4180 C.ar    1  UNL1        0.0114
      7 C          65.4402   91.7252   13.6730 C.ar    1  UNL1        0.0577
      8 CL         66.4086   92.7809   14.1173 Cl      1  UNL1       -0.0822
      9 C          65.2699   90.4746   14.4836 C.ar    1  UNL1        0.0114
     10 O          64.0161   85.6489   16.4903 O.2     1  UNL1       -0.2850
     11 C          64.0227   85.5763   14.9920 C.2     1  UNL1        0.2111
     12 C          63.8591   84.2533   14.3045 C.ar    1  UNL1        0.0961
     13 C          62.7689   83.2554   14.5607 C.ar    1  UNL1        0.0218
     14 C          62.9930   82.0813   13.6545 C.ar    1  UNL1        0.0200
     15 C          64.2217   82.3535   12.8383 C.ar    1  UNL1        0.0725
     16 N          64.7570   83.6959   13.2400 N.ar    1  UNL1       -0.3495
     17 H          65.5571   84.1341   12.8699 H       1  UNL1        0.1661
@<TRIPOS>BOND
     1    10    11    2
     2    11     1    1
     3     1     2    2
     4     2     3    1
     5     3     4   ar
     6     4     5   ar
     7     5     6   ar
     8     6     7   ar
     9     7     8    1
    10     7     9   ar
    11    11    12    1
    12    12    13   ar
    13    13    14   ar
    14    14    15   ar
    15    15    16   ar
    16     9     3   ar
    17    16    12   ar
    18    16    17    1
