@<TRIPOS>MOLECULE
*****
 26 28 0 0 0
SMALL
GASTEIGER

@<TRIPOS>ATOM
      1 C          63.5200   90.8846   11.4945 C.ar    1  UNL1        0.0017
      2 C          63.9331   90.6076   12.9096 C.ar    1  UNL1        0.0013
      3 C          65.0406   91.4015   13.5368 C.ar    1  UNL1        0.0142
      4 C          65.7349   92.4724   12.7488 C.ar    1  UNL1        0.0459
      5 N          66.8424   93.2663   13.3758 N.pl3   1  UNL1       -0.3569
      6 C          65.3218   92.7494   11.3336 C.ar    1  UNL1        0.0664
      7 C          64.2143   91.9556   10.7065 C.ar    1  UNL1        0.0058
      8 H          67.1135   93.0844   14.3046 H       1  UNL1        0.1424
      9 H          67.2981   93.9691   12.8586 H       1  UNL1        0.1424
     10 C          61.5830   86.6318    8.9282 C.ar    1  UNL1       -0.0001
     11 C          60.1738   86.3457    8.5016 C.ar    1  UNL1        0.0963
     12 N          59.3175   87.5022    8.9249 N.ar    1  UNL1       -0.2273
     13 C          60.1975   88.5031    9.6132 C.ar    1  UNL1        0.1402
     14 N          59.9048   89.8348   10.2382 N.ar    1  UNL1       -0.3374
     15 C          61.0122   90.6286   10.8654 C.ar    1  UNL1        0.0734
     16 C          62.4125   90.0907   10.8674 C.ar    1  UNL1        0.0171
     17 C          62.7052   88.7590   10.2423 C.ar    1  UNL1        0.0042
     18 C          61.5977   87.9652    9.6152 C.ar    1  UNL1        0.0315
     19 H          58.9857   90.1879   10.2369 H       1  UNL1        0.1674
     20 C          62.8189   84.8423    7.5067 C.3     1  UNL1        0.0051
     21 C          62.7694   85.7411    8.7067 C.3     1  UNL1        0.0280
     22 C          66.0162   93.8204   10.5456 C.2     1  UNL1        0.2503
     23 O          65.4280   95.1984   10.4725 O.2     1  UNL1       -0.2699
     24 N          67.2986   93.5133    9.8307 N.am    1  UNL1       -0.2725
     25 C          67.9929   94.5843    9.0427 C.3     1  UNL1        0.1152
     26 C          67.8867   92.1353    9.9038 C.3     1  UNL1        0.1152
@<TRIPOS>BOND
     1    20    21    1
     2    21    10    1
     3    10    11   ar
     4    11    12   ar
     5    12    13   ar
     6    13    14   ar
     7    14    15   ar
     8    15    16   ar
     9    16     1    1
    10     1     2   ar
    11     2     3   ar
    12     3     4   ar
    13     4     5    1
    14     4     6   ar
    15     6    22    1
    16    22    23    2
    17    22    24   am
    18    24    25    1
    19    24    26    1
    20     6     7   ar
    21    16    17   ar
    22    17    18   ar
    23    18    10   ar
    24    18    13    1
    25     7     1   ar
    26    14    19    1
    27     5     8    1
    28     5     9    1
@<TRIPOS>MOLECULE
*****
 26 28 0 0 0
SMALL
GASTEIGER

@<TRIPOS>ATOM
      1 C          63.7428   86.9989   15.1804 C.ar    1  UNL1        0.0017
      2 C          63.1254   87.3397   16.5042 C.ar    1  UNL1        0.0013
      3 C          63.0824   88.7660   16.9669 C.ar    1  UNL1        0.0142
      4 C          63.6569   89.8514   16.1056 C.ar    1  UNL1        0.0459
      5 N          63.6139   91.2776   16.5682 N.pl3   1  UNL1       -0.3569
      6 C          64.2743   89.5106   14.7817 C.ar    1  UNL1        0.0664
      7 C          64.3173   88.0844   14.3191 C.ar    1  UNL1        0.0058
      8 H          63.2087   91.5013   17.4371 H       1  UNL1        0.1424
      9 H          63.9909   91.9900   16.0029 H       1  UNL1        0.1424
     10 C          63.7425   83.2188   11.4208 C.ar    1  UNL1       -0.0001
     11 C          63.8163   81.7288   11.5779 C.ar    1  UNL1        0.0963
     12 N          63.8962   81.4207   13.0438 N.ar    1  UNL1       -0.2273
     13 C          63.8718   82.7202   13.7926 C.ar    1  UNL1        0.1402
     14 N          63.9238   83.0352   15.2582 N.ar    1  UNL1       -0.3374
     15 C          63.8808   84.4614   15.7208 C.ar    1  UNL1        0.0734
     16 C          63.7858   85.5726   14.7177 C.ar    1  UNL1        0.0171
     17 C          63.7338   85.2577   13.2521 C.ar    1  UNL1        0.0042
     18 C          63.7768   83.8315   12.7896 C.ar    1  UNL1        0.0315
     19 H          63.9862   82.3058   15.9165 H       1  UNL1        0.1674
     20 C          62.6418   85.0631    9.9589 C.3     1  UNL1        0.0051
     21 C          63.6506   83.9650   10.1229 C.3     1  UNL1        0.0280
     22 C          64.8487   90.5961   13.9204 C.2     1  UNL1        0.2503
     23 O          66.1119   91.2917   14.3334 O.2     1  UNL1       -0.2699
     24 N          64.1600   90.9859   12.6462 N.am    1  UNL1       -0.2725
     25 C          64.7344   92.0713   11.7849 C.3     1  UNL1        0.1152
     26 C          62.8968   90.2903   12.2332 C.3     1  UNL1        0.1152
@<TRIPOS>BOND
     1    20    21    1
     2    21    10    1
     3    10    11   ar
     4    11    12   ar
     5    12    13   ar
     6    13    14   ar
     7    14    15   ar
     8    15    16   ar
     9    16     1    1
    10     1     2   ar
    11     2     3   ar
    12     3     4   ar
    13     4     5    1
    14     4     6   ar
    15     6    22    1
    16    22    23    2
    17    22    24   am
    18    24    25    1
    19    24    26    1
    20     6     7   ar
    21    16    17   ar
    22    17    18   ar
    23    18    10   ar
    24    18    13    1
    25     7     1   ar
    26    14    19    1
    27     5     8    1
    28     5     9    1
@<TRIPOS>MOLECULE
*****
 26 28 0 0 0
SMALL
GASTEIGER

@<TRIPOS>ATOM
      1 C          63.7982   87.7149   13.6503 C.ar    1  UNL1        0.0017
      2 C          63.2726   88.1508   12.3147 C.ar    1  UNL1        0.0013
      3 C          63.2191   89.6096   11.9695 C.ar    1  UNL1        0.0142
      4 C          63.6912   90.6325   12.9599 C.ar    1  UNL1        0.0459
      5 N          63.6377   92.0912   12.6148 N.pl3   1  UNL1       -0.3569
      6 C          64.2168   90.1965   14.2955 C.ar    1  UNL1        0.0664
      7 C          64.2703   88.7378   14.6407 C.ar    1  UNL1        0.0058
      8 H          63.2927   92.3773   11.7382 H       1  UNL1        0.1424
      9 H          63.9476   92.7625   13.2648 H       1  UNL1        0.1424
     10 C          63.4616   82.5308   12.4519 C.ar    1  UNL1       -0.0001
     11 C          63.6384   81.3400   13.3467 C.ar    1  UNL1        0.0963
     12 N          63.9457   81.8393   14.7274 N.ar    1  UNL1       -0.2273
     13 C          63.9588   83.3387   14.6859 C.ar    1  UNL1        0.1402
     14 N          64.2045   84.3700   15.7470 N.ar    1  UNL1       -0.3374
     15 C          64.1510   85.8287   15.4018 C.ar    1  UNL1        0.0734
     16 C          63.8517   86.2561   13.9955 C.ar    1  UNL1        0.0171
     17 C          63.6060   85.2248   12.9344 C.ar    1  UNL1        0.0042
     18 C          63.6596   83.7661   13.2796 C.ar    1  UNL1        0.0315
     19 H          64.4009   84.0894   16.6700 H       1  UNL1        0.1674
     20 C          64.0927   83.0991    9.9965 C.3     1  UNL1        0.0051
     21 C          63.1427   82.4931   10.9867 C.3     1  UNL1        0.0280
     22 C          64.6890   91.2194   15.2859 C.2     1  UNL1        0.2503
     23 O          63.7797   91.6687   16.3911 O.2     1  UNL1       -0.2699
     24 N          66.0702   91.7928   15.1711 N.am    1  UNL1       -0.2725
     25 C          66.5423   92.8157   16.1615 C.3     1  UNL1        0.1152
     26 C          66.9794   91.3434   14.0659 C.3     1  UNL1        0.1152
@<TRIPOS>BOND
     1    20    21    1
     2    21    10    1
     3    10    11   ar
     4    11    12   ar
     5    12    13   ar
     6    13    14   ar
     7    14    15   ar
     8    15    16   ar
     9    16     1    1
    10     1     2   ar
    11     2     3   ar
    12     3     4   ar
    13     4     5    1
    14     4     6   ar
    15     6    22    1
    16    22    23    2
    17    22    24   am
    18    24    25    1
    19    24    26    1
    20     6     7   ar
    21    16    17   ar
    22    17    18   ar
    23    18    10   ar
    24    18    13    1
    25     7     1   ar
    26    14    19    1
    27     5     8    1
    28     5     9    1
@<TRIPOS>MOLECULE
*****
 26 28 0 0 0
SMALL
GASTEIGER

@<TRIPOS>ATOM
      1 C          63.7470   87.2166   13.6406 C.ar    1  UNL1        0.0017
      2 C          64.3956   88.1799   14.5900 C.ar    1  UNL1        0.0013
      3 C          64.3819   89.6501   14.2927 C.ar    1  UNL1        0.0142
      4 C          63.7195   90.1570   13.0460 C.ar    1  UNL1        0.0459
      5 N          63.7057   91.6271   12.7487 N.pl3   1  UNL1       -0.3569
      6 C          63.0708   89.1937   12.0966 C.ar    1  UNL1        0.0664
      7 C          63.0846   87.7235   12.3939 C.ar    1  UNL1        0.0058
      8 H          64.1314   92.2594   13.3718 H       1  UNL1        0.1424
      9 H          63.2710   91.9598   11.9304 H       1  UNL1        0.1424
     10 C          63.4421   82.0809   12.2424 C.ar    1  UNL1       -0.0001
     11 C          63.5427   80.8582   13.1055 C.ar    1  UNL1        0.0963
     12 N          63.7566   81.3065   14.5209 N.ar    1  UNL1       -0.2273
     13 C          63.7882   82.8061   14.5325 C.ar    1  UNL1        0.1402
     14 N          63.9689   83.7976   15.6434 N.ar    1  UNL1       -0.3374
     15 C          63.9551   85.2678   15.3461 C.ar    1  UNL1        0.0734
     16 C          63.7607   85.7464   13.9379 C.ar    1  UNL1        0.0171
     17 C          63.5801   84.7549   12.8270 C.ar    1  UNL1        0.0042
     18 C          63.5938   83.2847   13.1243 C.ar    1  UNL1        0.0315
     19 H          64.0965   83.4835   16.5677 H       1  UNL1        0.1674
     20 C          64.1241   82.9179    9.8792 C.3     1  UNL1        0.0051
     21 C          63.2274   82.0969   10.7579 C.3     1  UNL1        0.0280
     22 C          62.4084   89.7006   10.8499 C.2     1  UNL1        0.2503
     23 O          63.0941   90.7307   10.0020 O.2     1  UNL1       -0.2699
     24 N          61.0604   89.1774   10.4510 N.am    1  UNL1       -0.2725
     25 C          60.3980   89.6843    9.2043 C.3     1  UNL1        0.1152
     26 C          60.3747   88.1473   11.2989 C.3     1  UNL1        0.1152
@<TRIPOS>BOND
     1    20    21    1
     2    21    10    1
     3    10    11   ar
     4    11    12   ar
     5    12    13   ar
     6    13    14   ar
     7    14    15   ar
     8    15    16   ar
     9    16     1    1
    10     1     2   ar
    11     2     3   ar
    12     3     4   ar
    13     4     5    1
    14     4     6   ar
    15     6    22    1
    16    22    23    2
    17    22    24   am
    18    24    25    1
    19    24    26    1
    20     6     7   ar
    21    16    17   ar
    22    17    18   ar
    23    18    10   ar
    24    18    13    1
    25     7     1   ar
    26    14    19    1
    27     5     8    1
    28     5     9    1
@<TRIPOS>MOLECULE
*****
 26 28 0 0 0
SMALL
GASTEIGER

@<TRIPOS>ATOM
      1 C          61.8119   87.0766   10.8843 C.ar    1  UNL1        0.0017
      2 C          60.3332   87.3053   10.9891 C.ar    1  UNL1        0.0013
      3 C          59.8006   88.6950   11.1771 C.ar    1  UNL1        0.0142
      4 C          60.7468   89.8559   11.2603 C.ar    1  UNL1        0.0459
      5 N          60.2143   91.2455   11.4482 N.pl3   1  UNL1       -0.3569
      6 C          62.2256   89.6271   11.1555 C.ar    1  UNL1        0.0664
      7 C          62.7581   88.2375   10.9675 C.ar    1  UNL1        0.0058
      8 H          59.2438   91.3956   11.5170 H       1  UNL1        0.1424
      9 H          60.8354   92.0074   11.5028 H       1  UNL1        0.1424
     10 C          62.7315   82.0793   12.4985 C.ar    1  UNL1       -0.0001
     11 C          63.4122   80.9598   11.7681 C.ar    1  UNL1        0.0963
     12 N          63.8312   81.4718   10.4220 N.ar    1  UNL1       -0.2273
     13 C          63.4096   82.9078   10.3203 C.ar    1  UNL1        0.1402
     14 N          63.5567   83.9219    9.2249 N.ar    1  UNL1       -0.3374
     15 C          63.0242   85.3115    9.4130 C.ar    1  UNL1        0.0734
     16 C          62.3445   85.6869   10.6963 C.ar    1  UNL1        0.0171
     17 C          62.1973   84.6728   11.7917 C.ar    1  UNL1        0.0042
     18 C          62.7299   83.2832   11.6037 C.ar    1  UNL1        0.0315
     19 H          64.0028   83.6755    8.3826 H       1  UNL1        0.1674
     20 C          61.0353   81.0530   14.1778 C.3     1  UNL1        0.0051
     21 C          62.1538   82.0076   13.8809 C.3     1  UNL1        0.0280
     22 C          63.1718   90.7880   11.2387 C.2     1  UNL1        0.2503
     23 O          63.2901   91.7432   10.0880 O.2     1  UNL1       -0.2699
     24 N          63.9998   90.9939   12.4724 N.am    1  UNL1       -0.2725
     25 C          64.9460   92.1548   12.5556 C.3     1  UNL1        0.1152
     26 C          63.8815   90.0388   13.6230 C.3     1  UNL1        0.1152
@<TRIPOS>BOND
     1    20    21    1
     2    21    10    1
     3    10    11   ar
     4    11    12   ar
     5    12    13   ar
     6    13    14   ar
     7    14    15   ar
     8    15    16   ar
     9    16     1    1
    10     1     2   ar
    11     2     3   ar
    12     3     4   ar
    13     4     5    1
    14     4     6   ar
    15     6    22    1
    16    22    23    2
    17    22    24   am
    18    24    25    1
    19    24    26    1
    20     6     7   ar
    21    16    17   ar
    22    17    18   ar
    23    18    10   ar
    24    18    13    1
    25     7     1   ar
    26    14    19    1
    27     5     8    1
    28     5     9    1
@<TRIPOS>MOLECULE
*****
 26 28 0 0 0
SMALL
GASTEIGER

@<TRIPOS>ATOM
      1 C          62.5662   86.2323   12.3799 C.ar    1  UNL1        0.0017
      2 C          63.5116   87.2511   12.9438 C.ar    1  UNL1        0.0013
      3 C          63.4921   88.6593   12.4272 C.ar    1  UNL1        0.0142
      4 C          62.5272   89.0485   11.3468 C.ar    1  UNL1        0.0459
      5 N          62.5076   90.4566   10.8302 N.pl3   1  UNL1       -0.3569
      6 C          61.5817   88.0296   10.7829 C.ar    1  UNL1        0.0664
      7 C          61.6012   86.6215   11.2994 C.ar    1  UNL1        0.0058
      8 H          63.1282   91.1254   11.2003 H       1  UNL1        0.1424
      9 H          61.8743   90.7121   10.1211 H       1  UNL1        0.1424
     10 C          62.8620   80.9453   11.7605 C.ar    1  UNL1       -0.0001
     11 C          62.8207   79.8673   12.8027 C.ar    1  UNL1        0.0963
     12 N          62.6739   80.5241   14.1433 N.ar    1  UNL1       -0.2273
     13 C          62.6246   82.0080   13.9296 C.ar    1  UNL1        0.1402
     14 N          62.4889   83.1557   14.8856 N.ar    1  UNL1       -0.3374
     15 C          62.4694   84.5638   14.3691 C.ar    1  UNL1        0.0734
     16 C          62.5857   84.8241   12.8964 C.ar    1  UNL1        0.0171
     17 C          62.7214   83.6763   11.9403 C.ar    1  UNL1        0.0042
     18 C          62.7409   82.2683   12.4569 C.ar    1  UNL1        0.0315
     19 H          62.4126   82.9849   15.8522 H       1  UNL1        0.1674
     20 C          62.7832   79.3744    9.6925 C.3     1  UNL1        0.0051
     21 C          63.0003   80.7368   10.2815 C.3     1  UNL1        0.0280
     22 C          60.6167   88.4188    9.7024 C.2     1  UNL1        0.2503
     23 O          59.8838   89.7249    9.7863 O.2     1  UNL1       -0.2699
     24 N          60.3846   87.5020    8.5382 N.am    1  UNL1       -0.2725
     25 C          59.4197   87.8912    7.4578 C.3     1  UNL1        0.1152
     26 C          61.1175   86.1958    8.4544 C.3     1  UNL1        0.1152
@<TRIPOS>BOND
     1    20    21    1
     2    21    10    1
     3    10    11   ar
     4    11    12   ar
     5    12    13   ar
     6    13    14   ar
     7    14    15   ar
     8    15    16   ar
     9    16     1    1
    10     1     2   ar
    11     2     3   ar
    12     3     4   ar
    13     4     5    1
    14     4     6   ar
    15     6    22    1
    16    22    23    2
    17    22    24   am
    18    24    25    1
    19    24    26    1
    20     6     7   ar
    21    16    17   ar
    22    17    18   ar
    23    18    10   ar
    24    18    13    1
    25     7     1   ar
    26    14    19    1
    27     5     8    1
    28     5     9    1
@<TRIPOS>MOLECULE
*****
 26 28 0 0 0
SMALL
GASTEIGER

@<TRIPOS>ATOM
      1 C          62.5129   86.3221   11.8214 C.ar    1  UNL1        0.0017
      2 C          61.8884   86.4919   10.4682 C.ar    1  UNL1        0.0013
      3 C          61.8454   87.8472    9.8268 C.ar    1  UNL1        0.0142
      4 C          62.4269   89.0327   10.5385 C.ar    1  UNL1        0.0459
      5 N          62.3839   90.3879    9.8971 N.pl3   1  UNL1       -0.3569
      6 C          63.0515   88.8628   11.8918 C.ar    1  UNL1        0.0664
      7 C          63.0945   87.5076   12.5332 C.ar    1  UNL1        0.0058
      8 H          61.9740   90.4994    9.0090 H       1  UNL1        0.1424
      9 H          62.7656   91.1659   10.3643 H       1  UNL1        0.1424
     10 C          62.8875   81.0058   11.6804 C.ar    1  UNL1       -0.0001
     11 C          62.8666   80.0259   12.8159 C.ar    1  UNL1        0.0963
     12 N          62.7148   80.7989   14.0924 N.ar    1  UNL1       -0.2273
     13 C          62.6420   82.2565   13.7459 C.ar    1  UNL1        0.1402
     14 N          62.4923   83.4838   14.5951 N.ar    1  UNL1       -0.3374
     15 C          62.4493   84.8390   13.9536 C.ar    1  UNL1        0.0734
     16 C          62.5560   84.9668   12.4629 C.ar    1  UNL1        0.0171
     17 C          62.7057   83.7395   11.6137 C.ar    1  UNL1        0.0042
     18 C          62.7487   82.3843   12.2551 C.ar    1  UNL1        0.0315
     19 H          62.4222   83.3998   15.5735 H       1  UNL1        0.1674
     20 C          62.7743   79.2639    9.7560 C.3     1  UNL1        0.0051
     21 C          63.0234   80.6667   10.2256 C.3     1  UNL1        0.0280
     22 C          63.6330   90.0482   12.6035 C.2     1  UNL1        0.2503
     23 O          63.5878   91.4039   11.9631 O.2     1  UNL1       -0.2699
     24 N          64.2596   89.8780   13.9556 N.am    1  UNL1       -0.2725
     25 C          64.8412   91.0634   14.6674 C.3     1  UNL1        0.1152
     26 C          64.3048   88.5223   14.5961 C.3     1  UNL1        0.1152
@<TRIPOS>BOND
     1    20    21    1
     2    21    10    1
     3    10    11   ar
     4    11    12   ar
     5    12    13   ar
     6    13    14   ar
     7    14    15   ar
     8    15    16   ar
     9    16     1    1
    10     1     2   ar
    11     2     3   ar
    12     3     4   ar
    13     4     5    1
    14     4     6   ar
    15     6    22    1
    16    22    23    2
    17    22    24   am
    18    24    25    1
    19    24    26    1
    20     6     7   ar
    21    16    17   ar
    22    17    18   ar
    23    18    10   ar
    24    18    13    1
    25     7     1   ar
    26    14    19    1
    27     5     8    1
    28     5     9    1
@<TRIPOS>MOLECULE
*****
 26 28 0 0 0
SMALL
GASTEIGER

@<TRIPOS>ATOM
      1 C          63.9808   88.3722   14.8160 C.ar    1  UNL1        0.0017
      2 C          63.4093   88.4215   16.2020 C.ar    1  UNL1        0.0013
      3 C          63.0271   87.1507   16.9013 C.ar    1  UNL1        0.0142
      4 C          63.2163   85.8306   16.2145 C.ar    1  UNL1        0.0459
      5 N          62.8341   84.5598   16.9137 N.pl3   1  UNL1       -0.3569
      6 C          63.7878   85.7814   14.8284 C.ar    1  UNL1        0.0664
      7 C          64.1700   87.0522   14.1292 C.ar    1  UNL1        0.0058
      8 H          62.4590   84.5921   17.8234 H       1  UNL1        0.1424
      9 H          62.9583   83.6934   16.4629 H       1  UNL1        0.1424
     10 C          66.9967   92.7209   14.1702 C.ar    1  UNL1       -0.0001
     11 C          66.8897   93.8006   13.1345 C.ar    1  UNL1        0.0963
     12 N          65.7344   93.4692   12.2370 N.ar    1  UNL1       -0.2273
     13 C          65.1274   92.1846   12.7181 C.ar    1  UNL1        0.1402
     14 N          63.9651   91.3763   12.2226 N.ar    1  UNL1       -0.3374
     15 C          63.5829   90.1055   12.9219 C.ar    1  UNL1        0.0734
     16 C          64.3630   89.6431   14.1167 C.ar    1  UNL1        0.0171
     17 C          65.5253   90.4514   14.6122 C.ar    1  UNL1        0.0042
     18 C          65.9075   91.7222   13.9129 C.ar    1  UNL1        0.0315
     19 H          63.4530   91.6798   11.4384 H       1  UNL1        0.1674
     20 C          68.5379   93.9149   15.8877 C.3     1  UNL1        0.0051
     21 C          68.0142   92.6521   15.2702 C.3     1  UNL1        0.0280
     22 C          63.9770   84.4613   14.1416 C.2     1  UNL1        0.2503
     23 O          64.8069   83.3919   14.7879 O.2     1  UNL1       -0.2699
     24 N          63.3363   84.2107   12.8087 N.am    1  UNL1       -0.2725
     25 C          63.5255   82.8907   12.1220 C.3     1  UNL1        0.1152
     26 C          62.5064   85.2802   12.1625 C.3     1  UNL1        0.1152
@<TRIPOS>BOND
     1    20    21    1
     2    21    10    1
     3    10    11   ar
     4    11    12   ar
     5    12    13   ar
     6    13    14   ar
     7    14    15   ar
     8    15    16   ar
     9    16     1    1
    10     1     2   ar
    11     2     3   ar
    12     3     4   ar
    13     4     5    1
    14     4     6   ar
    15     6    22    1
    16    22    23    2
    17    22    24   am
    18    24    25    1
    19    24    26    1
    20     6     7   ar
    21    16    17   ar
    22    17    18   ar
    23    18    10   ar
    24    18    13    1
    25     7     1   ar
    26    14    19    1
    27     5     8    1
    28     5     9    1
@<TRIPOS>MOLECULE
*****
 26 28 0 0 0
SMALL
GASTEIGER

@<TRIPOS>ATOM
      1 C          63.6180   86.1451   15.0275 C.ar    1  UNL1        0.0017
      2 C          63.0081   86.2736   16.3918 C.ar    1  UNL1        0.0013
      3 C          62.9059   87.6207   17.0438 C.ar    1  UNL1        0.0142
      4 C          63.4137   88.8392   16.3314 C.ar    1  UNL1        0.0459
      5 N          63.3115   90.1862   16.9833 N.pl3   1  UNL1       -0.3569
      6 C          64.0236   88.7106   14.9670 C.ar    1  UNL1        0.0664
      7 C          64.1257   87.3635   14.3151 C.ar    1  UNL1        0.0058
      8 H          62.9113   90.2706   17.8788 H       1  UNL1        0.1424
      9 H          63.6448   90.9859   16.5157 H       1  UNL1        0.1424
     10 C          61.7476   81.3080   13.7913 C.ar    1  UNL1       -0.0001
     11 C          62.3955   80.2210   12.9859 C.ar    1  UNL1        0.0963
     12 N          63.7409   80.7130   12.5411 N.ar    1  UNL1       -0.2273
     13 C          63.9245   82.1040   13.0716 C.ar    1  UNL1        0.1402
     14 N          65.0543   83.0833   12.9509 N.ar    1  UNL1       -0.3374
     15 C          64.9521   84.4303   13.6028 C.ar    1  UNL1        0.0734
     16 C          63.7201   84.7980   14.3755 C.ar    1  UNL1        0.0171
     17 C          62.5904   83.8187   14.4963 C.ar    1  UNL1        0.0042
     18 C          62.6926   82.4717   13.8443 C.ar    1  UNL1        0.0315
     19 H          65.8628   82.8419   12.4437 H       1  UNL1        0.1674
     20 C          59.5201   80.0410   14.2195 C.3     1  UNL1        0.0051
     21 C          60.3926   81.2427   14.4314 C.3     1  UNL1        0.0280
     22 C          64.5313   89.9290   14.2546 C.2     1  UNL1        0.2503
     23 O          65.7146   90.6756   14.7956 O.2     1  UNL1       -0.2699
     24 N          63.8559   90.4009   13.0012 N.am    1  UNL1       -0.2725
     25 C          64.3637   91.6194   12.2887 C.3     1  UNL1        0.1152
     26 C          62.6727   89.6543   12.4601 C.3     1  UNL1        0.1152
@<TRIPOS>BOND
     1    20    21    1
     2    21    10    1
     3    10    11   ar
     4    11    12   ar
     5    12    13   ar
     6    13    14   ar
     7    14    15   ar
     8    15    16   ar
     9    16     1    1
    10     1     2   ar
    11     2     3   ar
    12     3     4   ar
    13     4     5    1
    14     4     6   ar
    15     6    22    1
    16    22    23    2
    17    22    24   am
    18    24    25    1
    19    24    26    1
    20     6     7   ar
    21    16    17   ar
    22    17    18   ar
    23    18    10   ar
    24    18    13    1
    25     7     1   ar
    26    14    19    1
    27     5     8    1
    28     5     9    1
