@<TRIPOS>MOLECULE
*****
 38 41 0 0 0
SMALL
GASTEIGER

@<TRIPOS>ATOM
      1 C          62.3268   86.0482   11.5217 C.ar    1  UNL1        0.1277
      2 N          61.4401   85.5923   10.4011 N.ar    1  UNL1       -0.2310
      3 C          60.8491   86.5963    9.4563 C.ar    1  UNL1        0.0828
      4 C          59.9623   86.1404    8.3357 C.ar    1  UNL1        0.0197
      5 C          59.3714   87.1444    7.3909 C.ar    1  UNL1        0.0082
      6 C          59.6673   88.6044    7.5667 C.ar    1  UNL1        0.0347
      7 BR         59.0763   89.6085    6.6218 Br      1  UNL1       -0.0490
      8 C          60.5541   89.0604    8.6872 C.ar    1  UNL1        0.0083
      9 C          61.1450   88.0563    9.6320 C.ar    1  UNL1        0.0223
     10 C          62.0318   88.5123   10.7527 C.ar    1  UNL1        0.0535
     11 C          62.6227   87.5082   11.6975 C.ar    1  UNL1        0.0141
     12 C          63.5095   87.9641   12.8181 C.3     1  UNL1        0.0341
     13 C          63.3402   82.5730   13.1484 C.3     1  UNL1        0.0199
     14 C          64.0996   83.0361   14.3561 C.3     1  UNL1        0.0035
     15 C          64.2682   84.5032   14.6191 C.3     1  UNL1        0.0215
     16 C          63.6773   85.5072   13.6743 C.3     1  UNL1        0.0921
     17 N          62.9178   85.0442   12.4666 N.pl3   1  UNL1       -0.2935
     18 C          62.7493   83.5770   12.2036 C.3     1  UNL1        0.0921
     19 C          62.0154   80.3640   13.4875 C.3     1  UNL1        0.0001
     20 C          63.1716   81.1059   12.8854 C.3     1  UNL1        0.0017
     21 C          62.3277   89.9722   10.9284 C.2     1  UNL1        0.2457
     22 O          61.3287   90.8639   11.6044 O.2     1  UNL1       -0.2702
     23 N          63.6226   90.5406   10.4281 N.am    1  UNL1       -0.3005
     24 H          64.2783   89.9554    9.9844 H       1  UNL1        0.1497
     25 C          63.9184   92.0006   10.6039 C.3     1  UNL1        0.0940
     26 C          65.1925   92.4332   11.2668 C.3     1  UNL1        0.0431
     27 C          66.3239   92.9684   10.4401 C.ar    1  UNL1       -0.0103
     28 C          67.3959   92.0425    9.9468 C.ar    1  UNL1       -0.0034
     29 C          68.5272   92.5778    9.1200 C.ar    1  UNL1       -0.0003
     30 C          68.5866   94.0391    8.7867 C.ar    1  UNL1        0.0008
     31 C          67.5146   94.9651    9.2800 C.ar    1  UNL1        0.0111
     32 C          66.3833   94.4298   10.1067 C.ar    1  UNL1        0.0537
     33 CL         65.3113   95.3557   10.6001 Cl      1  UNL1       -0.0826
     34 C          65.3353   92.3304   12.7565 C.3     1  UNL1        0.0120
     35 C          66.5164   92.9517   13.4414 C.3     1  UNL1        0.0421
     36 C          67.6543   92.0903   13.9030 C.2     1  UNL1        0.0503
     37 O          68.8176   91.8328   12.9919 O.co2   1  UNL1       -0.5492
     38 O          67.6289   91.4865   15.2759 O.co2   1  UNL1       -0.5492
@<TRIPOS>UNITY_ATOM_ATTR
37 1
charge -1
@<TRIPOS>BOND
     1    19    20    1
     2    20    13    1
     3    13    14    1
     4    14    15    1
     5    15    16    1
     6    16    17    1
     7    17     1    1
     8     1     2   ar
     9     2     3   ar
    10     3     4   ar
    11     4     5   ar
    12     5     6   ar
    13     6     7    1
    14     6     8   ar
    15     8     9   ar
    16     9    10   ar
    17    10    21    1
    18    21    22    2
    19    21    23   am
    20    23    25    1
    21    25    26    1
    22    26    34    1
    23    34    35    1
    24    35    36    1
    25    36    37   ar
    26    36    38   ar
    27    26    27    1
    28    27    28   ar
    29    28    29   ar
    30    29    30   ar
    31    30    31   ar
    32    31    32   ar
    33    32    33    1
    34    10    11   ar
    35    11    12    1
    36    17    18    1
    37    18    13    1
    38    11     1   ar
    39     9     3   ar
    40    32    27   ar
    41    23    24    1
@<TRIPOS>MOLECULE
*****
 38 41 0 0 0
SMALL
GASTEIGER

@<TRIPOS>ATOM
      1 C          62.1738   85.8313   10.9916 C.ar    1  UNL1        0.1277
      2 N          61.3066   85.4866    9.8173 N.ar    1  UNL1       -0.2310
      3 C          60.6965   86.5786    8.9893 C.ar    1  UNL1        0.0828
      4 C          59.8293   86.2339    7.8150 C.ar    1  UNL1        0.0197
      5 C          59.2193   87.3259    6.9871 C.ar    1  UNL1        0.0082
      6 C          59.4765   88.7625    7.3335 C.ar    1  UNL1        0.0347
      7 BR         58.8665   89.8545    6.5055 Br      1  UNL1       -0.0490
      8 C          60.3437   89.1071    8.5078 C.ar    1  UNL1        0.0083
      9 C          60.9537   88.0152    9.3357 C.ar    1  UNL1        0.0223
     10 C          61.8210   88.3598   10.5101 C.ar    1  UNL1        0.0535
     11 C          62.4310   87.2679   11.3380 C.ar    1  UNL1        0.0141
     12 C          63.2983   87.6125   12.5125 C.3     1  UNL1        0.0341
     13 C          63.2181   83.6485   14.1373 C.3     1  UNL1        0.0199
     14 C          64.0038   82.5555   13.4756 C.3     1  UNL1        0.0035
     15 C          64.1796   82.5544   11.9860 C.3     1  UNL1        0.0215
     16 C          63.5696   83.6463   11.1580 C.3     1  UNL1        0.0921
     17 N          62.7838   84.7393   11.8196 N.pl3   1  UNL1       -0.2935
     18 C          62.6081   84.7404   13.3093 C.3     1  UNL1        0.0921
     19 C          62.4826   84.8592   16.3152 C.3     1  UNL1        0.0001
     20 C          63.0423   83.6497   15.6270 C.3     1  UNL1        0.0017
     21 C          62.0782   89.7964   10.8565 C.2     1  UNL1        0.2457
     22 O          61.0114   90.6083   11.5293 O.2     1  UNL1       -0.2702
     23 N          63.4023   90.4212   10.5301 N.am    1  UNL1       -0.3005
     24 H          64.1026   89.8883   10.0885 H       1  UNL1        0.1497
     25 C          63.6596   91.8578   10.8765 C.3     1  UNL1        0.0940
     26 C          65.0520   92.3143   11.1967 C.3     1  UNL1        0.0431
     27 C          65.5202   92.3511   12.6213 C.ar    1  UNL1       -0.0103
     28 C          65.3324   91.1527   13.5037 C.ar    1  UNL1       -0.0034
     29 C          65.8006   91.1896   14.9283 C.ar    1  UNL1       -0.0003
     30 C          66.4565   92.4248   15.4705 C.ar    1  UNL1        0.0008
     31 C          66.6443   93.6231   14.5881 C.ar    1  UNL1        0.0111
     32 C          66.1762   93.5864   13.1636 C.ar    1  UNL1        0.0537
     33 CL         66.3639   94.7847   12.2812 Cl      1  UNL1       -0.0826
     34 C          65.9763   92.7341   10.0924 C.3     1  UNL1        0.0120
     35 C          67.3596   92.1596   10.0131 C.3     1  UNL1        0.0421
     36 C          68.4108   92.8459    9.1921 C.2     1  UNL1        0.0503
     37 O          68.7476   94.2837    9.4550 O.co2   1  UNL1       -0.5492
     38 O          69.1252   92.0942    8.1083 O.co2   1  UNL1       -0.5492
@<TRIPOS>UNITY_ATOM_ATTR
37 1
charge -1
@<TRIPOS>BOND
     1    19    20    1
     2    20    13    1
     3    13    14    1
     4    14    15    1
     5    15    16    1
     6    16    17    1
     7    17     1    1
     8     1     2   ar
     9     2     3   ar
    10     3     4   ar
    11     4     5   ar
    12     5     6   ar
    13     6     7    1
    14     6     8   ar
    15     8     9   ar
    16     9    10   ar
    17    10    21    1
    18    21    22    2
    19    21    23   am
    20    23    25    1
    21    25    26    1
    22    26    34    1
    23    34    35    1
    24    35    36    1
    25    36    37   ar
    26    36    38   ar
    27    26    27    1
    28    27    28   ar
    29    28    29   ar
    30    29    30   ar
    31    30    31   ar
    32    31    32   ar
    33    32    33    1
    34    10    11   ar
    35    11    12    1
    36    17    18    1
    37    18    13    1
    38    11     1   ar
    39     9     3   ar
    40    32    27   ar
    41    23    24    1
@<TRIPOS>MOLECULE
*****
 38 41 0 0 0
SMALL
GASTEIGER

@<TRIPOS>ATOM
      1 C          62.2717   86.1267   11.3361 C.ar    1  UNL1        0.1277
      2 N          61.3680   85.6721   10.2287 N.ar    1  UNL1       -0.2310
      3 C          60.7587   86.6777    9.2972 C.ar    1  UNL1        0.0828
      4 C          59.8550   86.2230    8.1897 C.ar    1  UNL1        0.0197
      5 C          59.2457   87.2286    7.2584 C.ar    1  UNL1        0.0082
      6 C          59.5401   88.6888    7.4344 C.ar    1  UNL1        0.0347
      7 BR         58.9308   89.6944    6.5030 Br      1  UNL1       -0.0490
      8 C          60.4439   89.1435    8.5419 C.ar    1  UNL1        0.0083
      9 C          61.0531   88.1379    9.4733 C.ar    1  UNL1        0.0223
     10 C          61.9569   88.5925   10.5808 C.ar    1  UNL1        0.0535
     11 C          62.5662   87.5869   11.5122 C.ar    1  UNL1        0.0141
     12 C          63.4700   88.0416   12.6197 C.3     1  UNL1        0.0341
     13 C          63.6144   84.4264   14.6612 C.3     1  UNL1        0.0199
     14 C          64.0997   83.1101   14.1305 C.3     1  UNL1        0.0035
     15 C          63.9756   82.7992   12.6683 C.3     1  UNL1        0.0215
     16 C          63.3663   83.8048   11.7369 C.3     1  UNL1        0.0921
     17 N          62.8811   85.1211   12.2676 N.pl3   1  UNL1       -0.2935
     18 C          63.0051   85.4319   13.7298 C.3     1  UNL1        0.0921
     19 C          63.3204   86.0810   16.6427 C.3     1  UNL1        0.0001
     20 C          63.7385   84.7373   16.1234 C.3     1  UNL1        0.0017
     21 C          62.2514   90.0528   10.7569 C.2     1  UNL1        0.2457
     22 O          61.2175   90.9595   11.3559 O.2     1  UNL1       -0.2702
     23 N          63.5798   90.6063   10.3339 N.am    1  UNL1       -0.3005
     24 H          64.2585   90.0112    9.9407 H       1  UNL1        0.1497
     25 C          63.8743   92.0666   10.5100 C.3     1  UNL1        0.0940
     26 C          65.1708   92.5012   11.1264 C.3     1  UNL1        0.0431
     27 C          65.9641   93.6101   10.5010 C.ar    1  UNL1       -0.0103
     28 C          65.4615   95.0218   10.5676 C.ar    1  UNL1       -0.0034
     29 C          66.2548   96.1306    9.9422 C.ar    1  UNL1       -0.0003
     30 C          67.5506   95.8278    9.2501 C.ar    1  UNL1        0.0008
     31 C          68.0532   94.4161    9.1834 C.ar    1  UNL1        0.0111
     32 C          67.2600   93.3072    9.8088 C.ar    1  UNL1        0.0537
     33 CL         67.7626   91.8955    9.7422 Cl      1  UNL1       -0.0826
     34 C          65.6741   91.8270   12.3682 C.3     1  UNL1        0.0120
     35 C          66.4231   92.6175   13.3998 C.3     1  UNL1        0.0421
     36 C          67.7427   92.1216   13.9123 C.2     1  UNL1        0.0503
     37 O          68.8520   91.8117   12.9513 O.co2   1  UNL1       -0.5492
     38 O          67.9530   91.9356   15.3858 O.co2   1  UNL1       -0.5492
@<TRIPOS>UNITY_ATOM_ATTR
37 1
charge -1
@<TRIPOS>BOND
     1    19    20    1
     2    20    13    1
     3    13    14    1
     4    14    15    1
     5    15    16    1
     6    16    17    1
     7    17     1    1
     8     1     2   ar
     9     2     3   ar
    10     3     4   ar
    11     4     5   ar
    12     5     6   ar
    13     6     7    1
    14     6     8   ar
    15     8     9   ar
    16     9    10   ar
    17    10    21    1
    18    21    22    2
    19    21    23   am
    20    23    25    1
    21    25    26    1
    22    26    34    1
    23    34    35    1
    24    35    36    1
    25    36    37   ar
    26    36    38   ar
    27    26    27    1
    28    27    28   ar
    29    28    29   ar
    30    29    30   ar
    31    30    31   ar
    32    31    32   ar
    33    32    33    1
    34    10    11   ar
    35    11    12    1
    36    17    18    1
    37    18    13    1
    38    11     1   ar
    39     9     3   ar
    40    32    27   ar
    41    23    24    1
@<TRIPOS>MOLECULE
*****
 38 41 0 0 0
SMALL
GASTEIGER

@<TRIPOS>ATOM
      1 C          61.4015   87.7489   10.2795 C.ar    1  UNL1        0.1277
      2 N          61.7615   86.3878   10.7969 N.ar    1  UNL1       -0.2310
      3 C          62.6709   86.2524   11.9822 C.ar    1  UNL1        0.0828
      4 C          63.0310   84.8913   12.4995 C.ar    1  UNL1        0.0197
      5 C          63.9403   84.7559   13.6847 C.ar    1  UNL1        0.0082
      6 C          64.4896   85.9816   14.3525 C.ar    1  UNL1        0.0347
      7 BR         65.3990   85.8461   15.5378 Br      1  UNL1       -0.0490
      8 C          64.1295   87.3427   13.8352 C.ar    1  UNL1        0.0083
      9 C          63.2202   87.4781   12.6500 C.ar    1  UNL1        0.0223
     10 C          62.8601   88.8392   12.1325 C.ar    1  UNL1        0.0535
     11 C          61.9507   88.9746   10.9474 C.ar    1  UNL1        0.0141
     12 C          61.5906   90.3358   10.4299 C.3     1  UNL1        0.0341
     13 C          59.6184   89.2661    7.0750 C.3     1  UNL1        0.0199
     14 C          58.6734   88.1554    6.7239 C.3     1  UNL1        0.0035
     15 C          58.6378   86.9092    7.5580 C.3     1  UNL1        0.0215
     16 C          59.5471   86.7737    8.7432 C.3     1  UNL1        0.0921
     17 N          60.4921   87.8844    9.0943 N.pl3   1  UNL1       -0.2935
     18 C          60.5277   89.1306    8.2602 C.3     1  UNL1        0.0921
     19 C          58.4430   90.9260    5.4585 C.3     1  UNL1        0.0001
     20 C          59.6541   90.5123    6.2409 C.3     1  UNL1        0.0017
     21 C          63.4094   90.0649   12.8004 C.2     1  UNL1        0.2457
     22 O          62.9476   90.4394   14.1775 O.2     1  UNL1       -0.2702
     23 N          64.4205   90.9161   12.0910 N.am    1  UNL1       -0.3005
     24 H          64.7236   90.6704   11.1871 H       1  UNL1        0.1497
     25 C          64.9698   92.1418   12.7588 C.3     1  UNL1        0.0940
     26 C          66.3786   92.5776   12.4848 C.3     1  UNL1        0.0431
     27 C          66.6535   93.6057   11.4277 C.ar    1  UNL1       -0.0103
     28 C          66.1771   95.0161   11.6113 C.ar    1  UNL1       -0.0034
     29 C          66.4520   96.0442   10.5542 C.ar    1  UNL1       -0.0003
     30 C          67.2032   95.6619    9.3134 C.ar    1  UNL1        0.0008
     31 C          67.6795   94.2514    9.1298 C.ar    1  UNL1        0.0111
     32 C          67.4047   93.2233   10.1868 C.ar    1  UNL1        0.0537
     33 CL         67.8810   91.8129   10.0032 Cl      1  UNL1       -0.0826
     34 C          67.5126   91.9853   13.2678 C.3     1  UNL1        0.0120
     35 C          67.3256   91.6424   14.7160 C.3     1  UNL1        0.0421
     36 C          67.1822   92.7355   15.7332 C.2     1  UNL1        0.0503
     37 O          66.0071   92.7431   16.6654 O.co2   1  UNL1       -0.5492
     38 O          68.2140   93.8210   15.8181 O.co2   1  UNL1       -0.5492
@<TRIPOS>UNITY_ATOM_ATTR
37 1
charge -1
@<TRIPOS>BOND
     1    19    20    1
     2    20    13    1
     3    13    14    1
     4    14    15    1
     5    15    16    1
     6    16    17    1
     7    17     1    1
     8     1     2   ar
     9     2     3   ar
    10     3     4   ar
    11     4     5   ar
    12     5     6   ar
    13     6     7    1
    14     6     8   ar
    15     8     9   ar
    16     9    10   ar
    17    10    21    1
    18    21    22    2
    19    21    23   am
    20    23    25    1
    21    25    26    1
    22    26    34    1
    23    34    35    1
    24    35    36    1
    25    36    37   ar
    26    36    38   ar
    27    26    27    1
    28    27    28   ar
    29    28    29   ar
    30    29    30   ar
    31    30    31   ar
    32    31    32   ar
    33    32    33    1
    34    10    11   ar
    35    11    12    1
    36    17    18    1
    37    18    13    1
    38    11     1   ar
    39     9     3   ar
    40    32    27   ar
    41    23    24    1
@<TRIPOS>MOLECULE
*****
 38 41 0 0 0
SMALL
GASTEIGER

@<TRIPOS>ATOM
      1 C          64.5411   89.3329   14.3652 C.ar    1  UNL1        0.1277
      2 N          64.9180   87.9552   14.8231 N.ar    1  UNL1       -0.2310
      3 C          64.3500   86.7525   14.1295 C.ar    1  UNL1        0.0828
      4 C          64.7269   85.3748   14.5875 C.ar    1  UNL1        0.0197
      5 C          64.1588   84.1723   13.8938 C.ar    1  UNL1        0.0082
      6 C          63.2138   84.3475   12.7422 C.ar    1  UNL1        0.0347
      7 BR         62.6457   83.1449   12.0486 Br      1  UNL1       -0.0490
      8 C          62.8369   85.7252   12.2842 C.ar    1  UNL1        0.0083
      9 C          63.4049   86.9277   12.9779 C.ar    1  UNL1        0.0223
     10 C          63.0280   88.3055   12.5199 C.ar    1  UNL1        0.0535
     11 C          63.5961   89.5080   13.2135 C.ar    1  UNL1        0.0141
     12 C          63.2191   90.8858   12.7556 C.3     1  UNL1        0.0341
     13 C          67.0574   92.2175   15.4127 C.3     1  UNL1        0.0199
     14 C          66.2454   92.9406   16.4460 C.3     1  UNL1        0.0035
     15 C          64.8653   92.4611   16.7857 C.3     1  UNL1        0.0215
     16 C          64.2972   91.2585   16.0921 C.3     1  UNL1        0.0921
     17 N          65.1092   90.5355   15.0588 N.pl3   1  UNL1       -0.2935
     18 C          66.4893   91.0149   14.7191 C.3     1  UNL1        0.0921
     19 C          69.0783   93.7786   15.8911 C.3     1  UNL1        0.0001
     20 C          68.4375   92.6970   15.0730 C.3     1  UNL1        0.0017
     21 C          62.0830   88.4807   11.3683 C.2     1  UNL1        0.2457
     22 O          62.5105   89.2581   10.1588 O.2     1  UNL1       -0.2702
     23 N          60.7104   87.8785   11.4261 N.am    1  UNL1       -0.3005
     24 H          60.4297   87.3682   12.2200 H       1  UNL1        0.1497
     25 C          59.7653   88.0536   10.2745 C.3     1  UNL1        0.0940
     26 C          60.2885   88.0562    8.8687 C.3     1  UNL1        0.0431
     27 C          61.0043   86.8520    8.3327 C.ar    1  UNL1       -0.0103
     28 C          62.4506   86.6305    8.6631 C.ar    1  UNL1       -0.0034
     29 C          63.1665   85.4262    8.1271 C.ar    1  UNL1       -0.0003
     30 C          62.4361   84.4434    7.2607 C.ar    1  UNL1        0.0008
     31 C          60.9898   84.6649    6.9303 C.ar    1  UNL1        0.0111
     32 C          60.2739   85.8692    7.4663 C.ar    1  UNL1        0.0537
     33 CL         58.8276   86.0906    7.1359 Cl      1  UNL1       -0.0826
     34 C          60.0958   89.2630    7.9989 C.3     1  UNL1        0.0120
     35 C          59.2271   89.1773    6.7791 C.3     1  UNL1        0.0421
     36 C          59.1953   90.3129    5.7997 C.2     1  UNL1        0.0503
     37 O          60.4693   90.8022    5.1771 O.co2   1  UNL1       -0.5492
     38 O          57.8896   90.9593    5.4428 O.co2   1  UNL1       -0.5492
@<TRIPOS>UNITY_ATOM_ATTR
37 1
charge -1
@<TRIPOS>BOND
     1    19    20    1
     2    20    13    1
     3    13    14    1
     4    14    15    1
     5    15    16    1
     6    16    17    1
     7    17     1    1
     8     1     2   ar
     9     2     3   ar
    10     3     4   ar
    11     4     5   ar
    12     5     6   ar
    13     6     7    1
    14     6     8   ar
    15     8     9   ar
    16     9    10   ar
    17    10    21    1
    18    21    22    2
    19    21    23   am
    20    23    25    1
    21    25    26    1
    22    26    34    1
    23    34    35    1
    24    35    36    1
    25    36    37   ar
    26    36    38   ar
    27    26    27    1
    28    27    28   ar
    29    28    29   ar
    30    29    30   ar
    31    30    31   ar
    32    31    32   ar
    33    32    33    1
    34    10    11   ar
    35    11    12    1
    36    17    18    1
    37    18    13    1
    38    11     1   ar
    39     9     3   ar
    40    32    27   ar
    41    23    24    1
@<TRIPOS>MOLECULE
*****
 38 41 0 0 0
SMALL
GASTEIGER

@<TRIPOS>ATOM
      1 C          63.7864   89.9838   13.3789 C.ar    1  UNL1        0.1277
      2 N          62.9705   90.6143   12.2895 N.ar    1  UNL1       -0.2310
      3 C          62.2408   89.7508   11.3036 C.ar    1  UNL1        0.0828
      4 C          61.4249   90.3813   10.2142 C.ar    1  UNL1        0.0197
      5 C          60.6953   89.5178    9.2283 C.ar    1  UNL1        0.0082
      6 C          60.7815   88.0239    9.3318 C.ar    1  UNL1        0.0347
      7 BR         60.0518   87.1604    8.3459 Br      1  UNL1       -0.0490
      8 C          61.5974   87.3934   10.4212 C.ar    1  UNL1        0.0083
      9 C          62.3270   88.2568   11.4071 C.ar    1  UNL1        0.0223
     10 C          63.1430   87.6264   12.4965 C.ar    1  UNL1        0.0535
     11 C          63.8726   88.4898   13.4824 C.ar    1  UNL1        0.0141
     12 C          64.6886   87.8594   14.5718 C.3     1  UNL1        0.0341
     13 C          66.6319   92.1942   15.0425 C.3     1  UNL1        0.0199
     14 C          65.9755   92.5741   16.3366 C.3     1  UNL1        0.0035
     15 C          64.5894   92.0906   16.6449 C.3     1  UNL1        0.0215
     16 C          63.8597   91.2271   15.6590 C.3     1  UNL1        0.0921
     17 N          64.5161   90.8472   14.3649 N.pl3   1  UNL1       -0.2935
     18 C          65.9022   91.3308   14.0566 C.3     1  UNL1        0.0921
     19 C          68.7494   93.5374   15.7221 C.3     1  UNL1        0.0001
     20 C          68.0179   92.6777   14.7342 C.3     1  UNL1        0.0017
     21 C          63.2292   86.1324   12.6000 C.2     1  UNL1        0.2457
     22 O          62.2110   85.2729   11.9113 O.2     1  UNL1       -0.2702
     23 N          64.3338   85.4980   13.3923 N.am    1  UNL1       -0.3005
     24 H          65.0021   86.0622   13.8443 H       1  UNL1        0.1497
     25 C          64.4200   84.0041   13.4958 C.3     1  UNL1        0.0940
     26 C          63.1665   83.1843   13.5765 C.3     1  UNL1        0.0431
     27 C          63.0268   81.9439   12.7448 C.ar    1  UNL1       -0.0103
     28 C          62.5384   80.6717   13.3717 C.ar    1  UNL1       -0.0034
     29 C          62.3986   79.4312   12.5399 C.ar    1  UNL1       -0.0003
     30 C          62.7473   79.4630   11.0814 C.ar    1  UNL1        0.0008
     31 C          63.2357   80.7352   10.4545 C.ar    1  UNL1        0.0111
     32 C          63.3754   81.9756   11.2862 C.ar    1  UNL1        0.0537
     33 CL         63.8638   83.2478   10.6594 Cl      1  UNL1       -0.0826
     34 C          62.0527   83.6049   14.4890 C.3     1  UNL1        0.0120
     35 C          62.3221   83.8290   15.9475 C.3     1  UNL1        0.0421
     36 C          62.4597   85.2249   16.4789 C.2     1  UNL1        0.0503
     37 O          61.2372   86.0066   16.8590 O.co2   1  UNL1       -0.5492
     38 O          63.8198   85.8392   16.6303 O.co2   1  UNL1       -0.5492
@<TRIPOS>UNITY_ATOM_ATTR
37 1
charge -1
@<TRIPOS>BOND
     1    19    20    1
     2    20    13    1
     3    13    14    1
     4    14    15    1
     5    15    16    1
     6    16    17    1
     7    17     1    1
     8     1     2   ar
     9     2     3   ar
    10     3     4   ar
    11     4     5   ar
    12     5     6   ar
    13     6     7    1
    14     6     8   ar
    15     8     9   ar
    16     9    10   ar
    17    10    21    1
    18    21    22    2
    19    21    23   am
    20    23    25    1
    21    25    26    1
    22    26    34    1
    23    34    35    1
    24    35    36    1
    25    36    37   ar
    26    36    38   ar
    27    26    27    1
    28    27    28   ar
    29    28    29   ar
    30    29    30   ar
    31    30    31   ar
    32    31    32   ar
    33    32    33    1
    34    10    11   ar
    35    11    12    1
    36    17    18    1
    37    18    13    1
    38    11     1   ar
    39     9     3   ar
    40    32    27   ar
    41    23    24    1
@<TRIPOS>MOLECULE
*****
 38 41 0 0 0
SMALL
GASTEIGER

@<TRIPOS>ATOM
      1 C          63.2245   89.8768   12.1066 C.ar    1  UNL1        0.1277
      2 N          62.3945   90.4352   10.9889 N.ar    1  UNL1       -0.2310
      3 C          61.5534   89.5197   10.1495 C.ar    1  UNL1        0.0828
      4 C          60.7234   90.0781    9.0318 C.ar    1  UNL1        0.0197
      5 C          59.8824   89.1625    8.1925 C.ar    1  UNL1        0.0082
      6 C          59.8715   87.6886    8.4708 C.ar    1  UNL1        0.0347
      7 BR         59.0304   86.7731    7.6314 Br      1  UNL1       -0.0490
      8 C          60.7015   87.1302    9.5885 C.ar    1  UNL1        0.0083
      9 C          61.5424   88.0458   10.4278 C.ar    1  UNL1        0.0223
     10 C          62.3725   87.4874   11.5456 C.ar    1  UNL1        0.0535
     11 C          63.2135   88.4029   12.3849 C.ar    1  UNL1        0.0141
     12 C          64.0436   87.8446   13.5027 C.3     1  UNL1        0.0341
     13 C          65.7006   92.8024   13.1361 C.3     1  UNL1        0.0199
     14 C          65.7475   92.6234   14.6246 C.3     1  UNL1        0.0035
     15 C          64.9534   91.5289   15.2738 C.3     1  UNL1        0.0215
     16 C          64.1124   90.6134   14.4345 C.3     1  UNL1        0.0921
     17 N          64.0655   90.7924   12.9460 N.pl3   1  UNL1       -0.2935
     18 C          64.8596   91.8869   12.2968 C.3     1  UNL1        0.0921
     19 C          66.1465   94.3560   11.1020 C.3     1  UNL1        0.0001
     20 C          66.4947   93.8969   12.4869 C.3     1  UNL1        0.0017
     21 C          62.3615   86.0135   11.8239 C.2     1  UNL1        0.2457
     22 O          61.1826   85.3884   12.5090 O.2     1  UNL1       -0.2702
     23 N          63.5296   85.1647   11.4172 N.am    1  UNL1       -0.3005
     24 H          64.3033   85.5750   10.9675 H       1  UNL1        0.1497
     25 C          63.5186   83.6908   11.6955 C.3     1  UNL1        0.0940
     26 C          63.8858   83.1821   13.0580 C.3     1  UNL1        0.0431
     27 C          63.6205   84.0252   14.2699 C.ar    1  UNL1       -0.0103
     28 C          62.2613   84.0198   14.9044 C.ar    1  UNL1       -0.0034
     29 C          61.9960   84.8629   16.1164 C.ar    1  UNL1       -0.0003
     30 C          63.0899   85.7114   16.6938 C.ar    1  UNL1        0.0008
     31 C          64.4491   85.7168   16.0593 C.ar    1  UNL1        0.0111
     32 C          64.7144   84.8737   14.8474 C.ar    1  UNL1        0.0537
     33 CL         66.0736   84.8791   14.2129 Cl      1  UNL1       -0.0826
     34 C          64.5182   81.8303   13.2085 C.3     1  UNL1        0.0120
     35 C          63.7444   80.7051   13.8289 C.3     1  UNL1        0.0421
     36 C          62.4424   80.2681   13.2257 C.2     1  UNL1        0.0503
     37 O          62.4365   79.3942   12.0066 O.co2   1  UNL1       -0.5492
     38 O          61.1463   80.7051   13.8416 O.co2   1  UNL1       -0.5492
@<TRIPOS>UNITY_ATOM_ATTR
37 1
charge -1
@<TRIPOS>BOND
     1    19    20    1
     2    20    13    1
     3    13    14    1
     4    14    15    1
     5    15    16    1
     6    16    17    1
     7    17     1    1
     8     1     2   ar
     9     2     3   ar
    10     3     4   ar
    11     4     5   ar
    12     5     6   ar
    13     6     7    1
    14     6     8   ar
    15     8     9   ar
    16     9    10   ar
    17    10    21    1
    18    21    22    2
    19    21    23   am
    20    23    25    1
    21    25    26    1
    22    26    34    1
    23    34    35    1
    24    35    36    1
    25    36    37   ar
    26    36    38   ar
    27    26    27    1
    28    27    28   ar
    29    28    29   ar
    30    29    30   ar
    31    30    31   ar
    32    31    32   ar
    33    32    33    1
    34    10    11   ar
    35    11    12    1
    36    17    18    1
    37    18    13    1
    38    11     1   ar
    39     9     3   ar
    40    32    27   ar
    41    23    24    1
@<TRIPOS>MOLECULE
*****
 38 41 0 0 0
SMALL
GASTEIGER

@<TRIPOS>ATOM
      1 C          64.1776   89.5932   14.3423 C.ar    1  UNL1        0.1277
      2 N          65.1775   90.6492   14.7097 N.ar    1  UNL1       -0.2310
      3 C          65.4557   91.7801   13.7643 C.ar    1  UNL1        0.0828
      4 C          66.4555   92.8361   14.1318 C.ar    1  UNL1        0.0197
      5 C          66.7336   93.9670   13.1864 C.ar    1  UNL1        0.0082
      6 C          66.0119   94.0418   11.8735 C.ar    1  UNL1        0.0347
      7 BR         66.2901   95.1727   10.9281 Br      1  UNL1       -0.0490
      8 C          65.0120   92.9858   11.5061 C.ar    1  UNL1        0.0083
      9 C          64.7339   91.8549   12.4515 C.ar    1  UNL1        0.0223
     10 C          63.7340   90.7988   12.0841 C.ar    1  UNL1        0.0535
     11 C          63.4559   89.6680   13.0295 C.ar    1  UNL1        0.0141
     12 C          62.4560   88.6119   12.6620 C.3     1  UNL1        0.0341
     13 C          64.0169   85.9320   15.8654 C.3     1  UNL1        0.0199
     14 C          63.3432   86.2005   17.1783 C.3     1  UNL1        0.0035
     15 C          62.9476   87.5999   17.5460 C.3     1  UNL1        0.0215
     16 C          63.2257   88.7308   16.6007 C.3     1  UNL1        0.0921
     17 N          63.8994   88.4623   15.2877 N.pl3   1  UNL1       -0.2935
     18 C          64.2950   87.0628   14.9200 C.3     1  UNL1        0.0921
     19 C          64.7312   84.1934   14.0718 C.3     1  UNL1        0.0001
     20 C          64.4125   84.5325   15.4977 C.3     1  UNL1        0.0017
     21 C          63.0123   90.8736   10.7713 C.2     1  UNL1        0.2457
     22 O          63.6475   91.5707    9.6048 O.2     1  UNL1       -0.2702
     23 N          61.6552   90.2514   10.6249 N.am    1  UNL1       -0.3005
     24 H          61.2383   89.7939   11.3905 H       1  UNL1        0.1497
     25 C          60.9335   90.3262    9.3121 C.3     1  UNL1        0.0940
     26 C          60.4397   89.0714    8.6551 C.3     1  UNL1        0.0431
     27 C          60.9802   87.7389    9.0818 C.ar    1  UNL1       -0.0103
     28 C          61.9228   86.9903    8.1866 C.ar    1  UNL1       -0.0034
     29 C          62.4633   85.6577    8.6134 C.ar    1  UNL1       -0.0003
     30 C          62.0611   85.0736    9.9351 C.ar    1  UNL1        0.0008
     31 C          61.1185   85.8221   10.8302 C.ar    1  UNL1        0.0111
     32 C          60.5780   87.1547   10.4036 C.ar    1  UNL1        0.0537
     33 CL         59.6354   87.9032   11.2987 Cl      1  UNL1       -0.0826
     34 C          59.4055   89.1492    7.5715 C.3     1  UNL1        0.0120
     35 C          59.7603   89.7342    6.2366 C.3     1  UNL1        0.0421
     36 C          58.8745   90.7717    5.6130 C.2     1  UNL1        0.0503
     37 O          59.4759   91.8868    4.8100 O.co2   1  UNL1       -0.5492
     38 O          57.3872   90.6940    5.7923 O.co2   1  UNL1       -0.5492
@<TRIPOS>UNITY_ATOM_ATTR
37 1
charge -1
@<TRIPOS>BOND
     1    19    20    1
     2    20    13    1
     3    13    14    1
     4    14    15    1
     5    15    16    1
     6    16    17    1
     7    17     1    1
     8     1     2   ar
     9     2     3   ar
    10     3     4   ar
    11     4     5   ar
    12     5     6   ar
    13     6     7    1
    14     6     8   ar
    15     8     9   ar
    16     9    10   ar
    17    10    21    1
    18    21    22    2
    19    21    23   am
    20    23    25    1
    21    25    26    1
    22    26    34    1
    23    34    35    1
    24    35    36    1
    25    36    37   ar
    26    36    38   ar
    27    26    27    1
    28    27    28   ar
    29    28    29   ar
    30    29    30   ar
    31    30    31   ar
    32    31    32   ar
    33    32    33    1
    34    10    11   ar
    35    11    12    1
    36    17    18    1
    37    18    13    1
    38    11     1   ar
    39     9     3   ar
    40    32    27   ar
    41    23    24    1
