@<TRIPOS>MOLECULE
*****
 33 37 0 0 0
SMALL
GASTEIGER

@<TRIPOS>ATOM
      1 C          66.2954   92.6612   12.8822 C.ar    1  UNL1        0.0436
      2 C          67.0884   92.8345   14.1436 C.ar    1  UNL1        0.0142
      3 C          66.6150   92.2041   15.4197 C.ar    1  UNL1        0.0010
      4 C          65.3486   91.4004   15.4344 C.ar    1  UNL1       -0.0032
      5 C          64.5555   91.2271   14.1730 C.ar    1  UNL1       -0.0091
      6 C          65.0290   91.8576   12.8970 C.ar    1  UNL1       -0.0101
      7 C          64.2359   91.6843   11.6355 C.3     1  UNL1        0.0444
      8 C          62.9695   90.8807   11.6502 C.3     1  UNL1        0.0749
      9 N          62.4961   90.2502   12.9264 N.3     1  UNL1       -0.2934
     10 C          63.2891   90.4235   14.1878 C.3     1  UNL1        0.0954
     11 H          62.4332   89.2469   12.7536 H       1  UNL1        0.1236
     12 C          66.5889   96.7903    9.7413 C.3     1  UNL1        0.0189
     13 C          66.9156   95.3562   10.0356 C.3     1  UNL1        0.0741
     14 C          66.4422   94.7257   11.3118 C.3     1  UNL1        0.1064
     15 N          66.7688   93.2917   11.6061 N.pl3   1  UNL1       -0.3050
     16 C          67.5689   92.4879   10.6243 C.3     1  UNL1        0.1064
     17 C          68.0423   93.1183    9.3482 C.3     1  UNL1        0.0741
     18 C          68.8424   92.3146    8.3664 C.3     1  UNL1        0.0189
     19 N          67.7156   94.5525    9.0538 N.3     1  UNL1       -0.2969
     20 H          67.1986   94.5622    8.1746 H       1  UNL1        0.1233
     21 C          62.1764   90.7074   10.3889 C.3     1  UNL1        0.0886
     22 N          60.8659   89.9785   10.4211 N.3     1  UNL1       -0.2667
     23 C          59.7056   90.5547   11.1774 C.3     1  UNL1        0.0899
     24 C          60.7155   88.6734    9.6971 C.3     1  UNL1        0.0978
     25 C          59.9191   88.6074    8.4277 C.3     1  UNL1        0.0224
     26 C          59.7687   87.3023    7.7037 C.3     1  UNL1        0.0065
     27 C          60.4148   86.0633    8.2491 C.3     1  UNL1        0.0277
     28 C          61.2112   86.1293    9.5185 C.ar    1  UNL1       -0.0073
     29 C          61.8572   84.8903   10.0638 C.ar    1  UNL1       -0.0015
     30 C          62.6536   84.9564   11.3333 C.ar    1  UNL1        0.0203
     31 C          62.8040   86.2614   12.0573 C.ar    1  UNL1        0.0985
     32 N          62.1579   87.5004   11.5119 N.ar    1  UNL1       -0.2471
     33 C          61.3616   87.4344   10.2425 C.ar    1  UNL1        0.0695
@<TRIPOS>BOND
     1    13    12    1
     2    13    14    1
     3    14    15    1
     4    15     1    1
     5     1     2   ar
     6     2     3   ar
     7     3     4   ar
     8     4     5   ar
     9     5     6   ar
    10     6     7    1
    11     7     8    1
    12     8    21    1
    13    21    22    1
    14    22    23    1
    15    24    22    1
    16    24    25    1
    17    25    26    1
    18    26    27    1
    19    27    28    1
    20    28    29   ar
    21    29    30   ar
    22    30    31   ar
    23    31    32   ar
    24    32    33   ar
    25     8     9    1
    26     9    10    1
    27    15    16    1
    28    16    17    1
    29    17    18    1
    30    17    19    1
    31    19    13    1
    32     6     1   ar
    33    33    24    1
    34    10     5    1
    35    33    28   ar
    36     9    11    1
    37    19    20    1
@<TRIPOS>MOLECULE
*****
 33 37 0 0 0
SMALL
GASTEIGER

@<TRIPOS>ATOM
      1 C          62.6602   83.9838   12.1824 C.ar    1  UNL1        0.0436
      2 C          62.3360   82.5194   12.1623 C.ar    1  UNL1        0.0142
      3 C          62.7048   81.6535   13.3303 C.ar    1  UNL1        0.0010
      4 C          63.3979   82.2520   14.5183 C.ar    1  UNL1       -0.0032
      5 C          63.7221   83.7164   14.5384 C.ar    1  UNL1       -0.0091
      6 C          63.3533   84.5823   13.3705 C.ar    1  UNL1       -0.0101
      7 C          63.6775   86.0467   13.3905 C.3     1  UNL1        0.0444
      8 C          64.3706   86.6452   14.5786 C.3     1  UNL1        0.0749
      9 N          64.7394   85.7793   15.7466 N.3     1  UNL1       -0.2934
     10 C          64.4152   84.3149   15.7265 C.3     1  UNL1        0.0954
     11 H          64.2730   86.1729   16.5638 H       1  UNL1        0.1236
     12 C          63.0610   85.1374    7.1318 C.3     1  UNL1        0.0189
     13 C          62.4917   85.4266    8.4891 C.3     1  UNL1        0.0741
     14 C          62.8606   84.5606    9.6571 C.3     1  UNL1        0.1064
     15 N          62.2914   84.8497   11.0144 N.pl3   1  UNL1       -0.3050
     16 C          61.3533   86.0048   11.2038 C.3     1  UNL1        0.1064
     17 C          60.9844   86.8707   10.0359 C.3     1  UNL1        0.0741
     18 C          60.0464   88.0258   10.2253 C.3     1  UNL1        0.0189
     19 N          61.5537   86.5816    8.6785 N.3     1  UNL1       -0.2969
     20 H          62.0555   87.4197    8.3851 H       1  UNL1        0.1233
     21 C          64.6948   88.1096   14.5987 C.3     1  UNL1        0.0886
     22 N          63.6224   89.1192   14.3146 N.3     1  UNL1       -0.2667
     23 C          62.5235   89.3463   15.3101 C.3     1  UNL1        0.0899
     24 C          63.6488   89.9017   13.0352 C.3     1  UNL1        0.0978
     25 C          62.7967   89.4744   11.8770 C.3     1  UNL1        0.0224
     26 C          62.8231   90.2569   10.5975 C.3     1  UNL1        0.0065
     27 C          63.7017   91.4666   10.4763 C.3     1  UNL1        0.0277
     28 C          64.5538   91.8939   11.6344 C.ar    1  UNL1       -0.0073
     29 C          65.4323   93.1036   11.5131 C.ar    1  UNL1       -0.0015
     30 C          66.2844   93.5309   12.6713 C.ar    1  UNL1        0.0203
     31 C          66.2580   92.7484   13.9508 C.ar    1  UNL1        0.0985
     32 N          65.3795   91.5386   14.0720 N.ar    1  UNL1       -0.2471
     33 C          64.5274   91.1114   12.9139 C.ar    1  UNL1        0.0695
@<TRIPOS>BOND
     1    13    12    1
     2    13    14    1
     3    14    15    1
     4    15     1    1
     5     1     2   ar
     6     2     3   ar
     7     3     4   ar
     8     4     5   ar
     9     5     6   ar
    10     6     7    1
    11     7     8    1
    12     8    21    1
    13    21    22    1
    14    22    23    1
    15    24    22    1
    16    24    25    1
    17    25    26    1
    18    26    27    1
    19    27    28    1
    20    28    29   ar
    21    29    30   ar
    22    30    31   ar
    23    31    32   ar
    24    32    33   ar
    25     8     9    1
    26     9    10    1
    27    15    16    1
    28    16    17    1
    29    17    18    1
    30    17    19    1
    31    19    13    1
    32     6     1   ar
    33    33    24    1
    34    10     5    1
    35    33    28   ar
    36     9    11    1
    37    19    20    1
@<TRIPOS>MOLECULE
*****
 33 37 0 0 0
SMALL
GASTEIGER

@<TRIPOS>ATOM
      1 C          63.0073   84.1587   10.9152 C.ar    1  UNL1        0.0436
      2 C          63.7969   83.2914    9.9802 C.ar    1  UNL1        0.0142
      3 C          63.8953   83.6505    8.5272 C.ar    1  UNL1        0.0010
      4 C          63.2041   84.8768    8.0092 C.ar    1  UNL1       -0.0032
      5 C          62.4145   85.7441    8.9442 C.ar    1  UNL1       -0.0091
      6 C          62.3161   85.3850   10.3972 C.ar    1  UNL1       -0.0101
      7 C          61.5264   86.2523   11.3323 C.3     1  UNL1        0.0444
      8 C          60.8352   87.4787   10.8143 C.3     1  UNL1        0.0749
      9 N          60.9337   87.8377    9.3612 N.3     1  UNL1       -0.2934
     10 C          61.7233   86.9704    8.4262 C.3     1  UNL1        0.0954
     11 H          61.3445   88.7702    9.3155 H       1  UNL1        0.1236
     12 C          61.5881   80.8264   14.6411 C.3     1  UNL1        0.0189
     13 C          62.1992   82.1335   14.2313 C.3     1  UNL1        0.0741
     14 C          62.2977   82.4925   12.7782 C.3     1  UNL1        0.1064
     15 N          62.9088   83.7996   12.3683 N.pl3   1  UNL1       -0.3050
     16 C          63.4214   84.7477   13.4115 C.3     1  UNL1        0.1064
     17 C          63.3230   84.3887   14.8646 C.3     1  UNL1        0.0741
     18 C          63.8357   85.3368   15.9078 C.3     1  UNL1        0.0189
     19 N          62.7119   83.0816   15.2745 N.3     1  UNL1       -0.2969
     20 H          61.9243   83.3029   15.8837 H       1  UNL1        0.1233
     21 C          60.0456   88.3459   11.7493 C.3     1  UNL1        0.0886
     22 N          60.2399   89.8332   11.7370 N.3     1  UNL1       -0.2667
     23 C          59.0614   90.7450   11.9096 C.3     1  UNL1        0.0899
     24 C          61.6127   90.4088   11.5522 C.3     1  UNL1        0.0978
     25 C          62.0172   90.9717   10.2219 C.3     1  UNL1        0.0224
     26 C          63.3899   91.5472   10.0371 C.3     1  UNL1        0.0065
     27 C          64.3583   91.5599   11.1825 C.3     1  UNL1        0.0277
     28 C          63.9539   90.9971   12.5128 C.ar    1  UNL1       -0.0073
     29 C          64.9223   91.0098   13.6582 C.ar    1  UNL1       -0.0015
     30 C          64.5179   90.4469   14.9886 C.ar    1  UNL1        0.0203
     31 C          63.1451   89.8714   15.1734 C.ar    1  UNL1        0.0985
     32 N          62.1767   89.8587   14.0279 N.ar    1  UNL1       -0.2471
     33 C          62.5811   90.4215   12.6977 C.ar    1  UNL1        0.0695
@<TRIPOS>BOND
     1    13    12    1
     2    13    14    1
     3    14    15    1
     4    15     1    1
     5     1     2   ar
     6     2     3   ar
     7     3     4   ar
     8     4     5   ar
     9     5     6   ar
    10     6     7    1
    11     7     8    1
    12     8    21    1
    13    21    22    1
    14    22    23    1
    15    24    22    1
    16    24    25    1
    17    25    26    1
    18    26    27    1
    19    27    28    1
    20    28    29   ar
    21    29    30   ar
    22    30    31   ar
    23    31    32   ar
    24    32    33   ar
    25     8     9    1
    26     9    10    1
    27    15    16    1
    28    16    17    1
    29    17    18    1
    30    17    19    1
    31    19    13    1
    32     6     1   ar
    33    33    24    1
    34    10     5    1
    35    33    28   ar
    36     9    11    1
    37    19    20    1
@<TRIPOS>MOLECULE
*****
 33 37 0 0 0
SMALL
GASTEIGER

@<TRIPOS>ATOM
      1 C          61.3633   86.4084    9.7712 C.ar    1  UNL1        0.0436
      2 C          60.7276   85.9286    8.5001 C.ar    1  UNL1        0.0142
      3 C          59.8744   86.8594    7.6905 C.ar    1  UNL1        0.0010
      4 C          59.6568   88.2700    8.1519 C.ar    1  UNL1       -0.0032
      5 C          60.2925   88.7498    9.4230 C.ar    1  UNL1       -0.0091
      6 C          61.1458   87.8190   10.2326 C.ar    1  UNL1       -0.0101
      7 C          61.7816   88.2987   11.5037 C.3     1  UNL1        0.0444
      8 C          61.5640   89.7093   11.9652 C.3     1  UNL1        0.0749
      9 N          60.7107   90.6401   11.1555 N.3     1  UNL1       -0.2934
     10 C          60.0750   90.1603    9.8844 C.3     1  UNL1        0.0954
     11 H          61.2970   91.4375   10.9087 H       1  UNL1        0.1236
     12 C          63.1940   84.8381   14.3737 C.3     1  UNL1        0.0189
     13 C          63.1320   84.6924   12.8821 C.3     1  UNL1        0.0741
     14 C          62.2787   85.6232   12.0724 C.3     1  UNL1        0.1064
     15 N          62.2167   85.4776   10.5808 N.pl3   1  UNL1       -0.3050
     16 C          63.0080   84.4011    9.8989 C.3     1  UNL1        0.1064
     17 C          63.8613   83.4703   10.7085 C.3     1  UNL1        0.0741
     18 C          64.6525   82.3939   10.0265 C.3     1  UNL1        0.0189
     19 N          63.9233   83.6160   12.2001 N.3     1  UNL1       -0.2969
     20 H          64.9021   83.7731   12.4402 H       1  UNL1        0.1233
     21 C          62.1998   90.1891   13.2362 C.3     1  UNL1        0.0886
     22 N          63.6903   90.1367   13.3956 N.3     1  UNL1       -0.2667
     23 C          64.3314   88.9613   14.0719 C.3     1  UNL1        0.0899
     24 C          64.5398   91.2596   12.8786 C.3     1  UNL1        0.0978
     25 C          64.4705   91.6476   11.4312 C.3     1  UNL1        0.0224
     26 C          65.3200   92.7705   10.9143 C.3     1  UNL1        0.0065
     27 C          66.2389   93.5056   11.8446 C.3     1  UNL1        0.0277
     28 C          66.3082   93.1177   13.2918 C.ar    1  UNL1       -0.0073
     29 C          67.2270   93.8527   14.2222 C.ar    1  UNL1       -0.0015
     30 C          67.2963   93.4647   15.6695 C.ar    1  UNL1        0.0203
     31 C          66.4468   92.3418   16.1865 C.ar    1  UNL1        0.0985
     32 N          65.5280   91.6068   15.2562 N.ar    1  UNL1       -0.2471
     33 C          65.4587   91.9947   13.8089 C.ar    1  UNL1        0.0695
@<TRIPOS>BOND
     1    13    12    1
     2    13    14    1
     3    14    15    1
     4    15     1    1
     5     1     2   ar
     6     2     3   ar
     7     3     4   ar
     8     4     5   ar
     9     5     6   ar
    10     6     7    1
    11     7     8    1
    12     8    21    1
    13    21    22    1
    14    22    23    1
    15    24    22    1
    16    24    25    1
    17    25    26    1
    18    26    27    1
    19    27    28    1
    20    28    29   ar
    21    29    30   ar
    22    30    31   ar
    23    31    32   ar
    24    32    33   ar
    25     8     9    1
    26     9    10    1
    27    15    16    1
    28    16    17    1
    29    17    18    1
    30    17    19    1
    31    19    13    1
    32     6     1   ar
    33    33    24    1
    34    10     5    1
    35    33    28   ar
    36     9    11    1
    37    19    20    1
@<TRIPOS>MOLECULE
*****
 33 37 0 0 0
SMALL
GASTEIGER

@<TRIPOS>ATOM
      1 C          62.8072   84.5758   11.8304 C.ar    1  UNL1        0.0436
      2 C          62.8238   83.0897   12.0336 C.ar    1  UNL1        0.0142
      3 C          63.3732   82.5127   13.3045 C.ar    1  UNL1        0.0010
      4 C          63.9058   83.4218   14.3722 C.ar    1  UNL1       -0.0032
      5 C          63.8892   84.9078   14.1690 C.ar    1  UNL1       -0.0091
      6 C          63.3398   85.4848   12.8980 C.ar    1  UNL1       -0.0101
      7 C          63.3231   86.9709   12.6948 C.3     1  UNL1        0.0444
      8 C          63.8558   87.8800   13.7624 C.3     1  UNL1        0.0749
      9 N          64.4052   87.3029   15.0334 N.3     1  UNL1       -0.2934
     10 C          64.4218   85.8168   15.2366 C.3     1  UNL1        0.0954
     11 H          63.8572   87.6984   15.7974 H       1  UNL1        0.1236
     12 C          59.5926   87.8539    9.3970 C.3     1  UNL1        0.0189
     13 C          60.6505   86.7919    9.3427 C.3     1  UNL1        0.0741
     14 C          61.1999   86.2148   10.6137 C.3     1  UNL1        0.1064
     15 N          62.2578   85.1529   10.5594 N.pl3   1  UNL1       -0.3050
     16 C          62.7664   84.6679    9.2342 C.3     1  UNL1        0.1064
     17 C          62.2171   85.2449    7.9633 C.3     1  UNL1        0.0741
     18 C          62.7257   84.7600    6.6381 C.3     1  UNL1        0.0189
     19 N          61.1591   86.3070    8.0175 N.3     1  UNL1       -0.2969
     20 H          60.3532   85.9461    7.5070 H       1  UNL1        0.1233
     21 C          63.8392   89.3660   13.5592 C.3     1  UNL1        0.0886
     22 N          64.0946   90.2843   14.7174 N.3     1  UNL1       -0.2667
     23 C          63.3857   90.0629   16.0207 C.3     1  UNL1        0.0899
     24 C          65.0590   91.4240   14.5724 C.3     1  UNL1        0.0978
     25 C          65.8393   91.9021   15.7609 C.3     1  UNL1        0.0224
     26 C          66.8037   93.0418   15.6159 C.3     1  UNL1        0.0065
     27 C          66.9877   93.7035   14.2824 C.3     1  UNL1        0.0277
     28 C          66.2075   93.2254   13.0938 C.ar    1  UNL1       -0.0073
     29 C          66.3915   93.8871   11.7603 C.ar    1  UNL1       -0.0015
     30 C          65.6112   93.4090   10.5718 C.ar    1  UNL1        0.0203
     31 C          64.6469   92.2693   10.7168 C.ar    1  UNL1        0.0985
     32 N          64.4628   91.6077   12.0503 N.ar    1  UNL1       -0.2471
     33 C          65.2431   92.0857   13.2388 C.ar    1  UNL1        0.0695
@<TRIPOS>BOND
     1    13    12    1
     2    13    14    1
     3    14    15    1
     4    15     1    1
     5     1     2   ar
     6     2     3   ar
     7     3     4   ar
     8     4     5   ar
     9     5     6   ar
    10     6     7    1
    11     7     8    1
    12     8    21    1
    13    21    22    1
    14    22    23    1
    15    24    22    1
    16    24    25    1
    17    25    26    1
    18    26    27    1
    19    27    28    1
    20    28    29   ar
    21    29    30   ar
    22    30    31   ar
    23    31    32   ar
    24    32    33   ar
    25     8     9    1
    26     9    10    1
    27    15    16    1
    28    16    17    1
    29    17    18    1
    30    17    19    1
    31    19    13    1
    32     6     1   ar
    33    33    24    1
    34    10     5    1
    35    33    28   ar
    36     9    11    1
    37    19    20    1
@<TRIPOS>MOLECULE
*****
 33 37 0 0 0
SMALL
GASTEIGER

@<TRIPOS>ATOM
      1 C          62.8150   84.5757   11.8267 C.ar    1  UNL1        0.0436
      2 C          62.8314   83.0893   12.0273 C.ar    1  UNL1        0.0142
      3 C          63.3786   82.5101   13.2982 C.ar    1  UNL1        0.0010
      4 C          63.9094   83.4173   14.3684 C.ar    1  UNL1       -0.0032
      5 C          63.8929   84.9037   14.1678 C.ar    1  UNL1       -0.0091
      6 C          63.3457   85.4829   12.8969 C.ar    1  UNL1       -0.0101
      7 C          63.3293   86.9694   12.6963 C.3     1  UNL1        0.0444
      8 C          63.8600   87.8766   13.7665 C.3     1  UNL1        0.0749
      9 N          64.4072   87.2973   15.0373 N.3     1  UNL1       -0.2934
     10 C          64.4237   85.8109   15.2380 C.3     1  UNL1        0.0954
     11 H          63.8579   87.6914   15.8011 H       1  UNL1        0.1236
     12 C          62.7364   84.7634    6.6345 C.3     1  UNL1        0.0189
     13 C          62.2285   85.2489    7.9597 C.3     1  UNL1        0.0741
     14 C          62.7757   84.6696    9.2306 C.3     1  UNL1        0.1064
     15 N          62.2678   85.1550   10.5558 N.pl3   1  UNL1       -0.3050
     16 C          61.2127   86.2198   10.6103 C.3     1  UNL1        0.1064
     17 C          60.6655   86.7991    9.3395 C.3     1  UNL1        0.0741
     18 C          59.6103   87.8639    9.3940 C.3     1  UNL1        0.0189
     19 N          61.1734   86.3136    8.0142 N.3     1  UNL1       -0.2969
     20 H          61.5504   87.1269    7.5275 H       1  UNL1        0.1233
     21 C          63.8436   89.3630   13.5658 C.3     1  UNL1        0.0886
     22 N          64.1004   90.2792   14.7254 N.3     1  UNL1       -0.2667
     23 C          63.3912   90.0569   16.0283 C.3     1  UNL1        0.0899
     24 C          65.0665   91.4176   14.5821 C.3     1  UNL1        0.0978
     25 C          65.8442   91.8958   15.7723 C.3     1  UNL1        0.0224
     26 C          66.8102   93.0343   15.6290 C.3     1  UNL1        0.0065
     27 C          66.9987   93.6946   14.2954 C.3     1  UNL1        0.0277
     28 C          66.2211   93.2165   13.1052 C.ar    1  UNL1       -0.0073
     29 C          66.4096   93.8768   11.7716 C.ar    1  UNL1       -0.0015
     30 C          65.6319   93.3987   10.5813 C.ar    1  UNL1        0.0203
     31 C          64.6659   92.2602   10.7247 C.ar    1  UNL1        0.0985
     32 N          64.4774   91.5999   12.0582 N.ar    1  UNL1       -0.2471
     33 C          65.2550   92.0780   13.2485 C.ar    1  UNL1        0.0695
@<TRIPOS>BOND
     1    13    12    1
     2    13    14    1
     3    14    15    1
     4    15     1    1
     5     1     2   ar
     6     2     3   ar
     7     3     4   ar
     8     4     5   ar
     9     5     6   ar
    10     6     7    1
    11     7     8    1
    12     8    21    1
    13    21    22    1
    14    22    23    1
    15    24    22    1
    16    24    25    1
    17    25    26    1
    18    26    27    1
    19    27    28    1
    20    28    29   ar
    21    29    30   ar
    22    30    31   ar
    23    31    32   ar
    24    32    33   ar
    25     8     9    1
    26     9    10    1
    27    15    16    1
    28    16    17    1
    29    17    18    1
    30    17    19    1
    31    19    13    1
    32     6     1   ar
    33    33    24    1
    34    10     5    1
    35    33    28   ar
    36     9    11    1
    37    19    20    1
@<TRIPOS>MOLECULE
*****
 33 37 0 0 0
SMALL
GASTEIGER

@<TRIPOS>ATOM
      1 C          62.4553   84.7776   11.6595 C.ar    1  UNL1        0.0436
      2 C          62.3793   83.3460   11.2183 C.ar    1  UNL1        0.0142
      3 C          63.2269   82.3077   11.8918 C.ar    1  UNL1        0.0010
      4 C          64.1504   82.7011   13.0064 C.ar    1  UNL1       -0.0032
      5 C          64.2263   84.1327   13.4476 C.ar    1  UNL1       -0.0091
      6 C          63.3787   85.1709   12.7741 C.ar    1  UNL1       -0.0101
      7 C          63.4546   86.6026   13.2153 C.3     1  UNL1        0.0444
      8 C          64.3781   86.9960   14.3299 C.3     1  UNL1        0.0749
      9 N          65.2257   85.9576   15.0034 N.3     1  UNL1       -0.2934
     10 C          65.1498   84.5260   14.5623 C.3     1  UNL1        0.0954
     11 H          64.9804   85.9741   15.9934 H       1  UNL1        0.1236
     12 C          59.7777   89.2261   11.8646 C.3     1  UNL1        0.0189
     13 C          60.2689   88.0402   11.0885 C.3     1  UNL1        0.0741
     14 C          61.1165   87.0018   11.7620 C.3     1  UNL1        0.1064
     15 N          61.6077   85.8159   10.9860 N.pl3   1  UNL1       -0.3050
     16 C          61.2514   85.6683    9.5364 C.3     1  UNL1        0.1064
     17 C          60.4039   86.7066    8.8629 C.3     1  UNL1        0.0741
     18 C          60.0476   86.5590    7.4133 C.3     1  UNL1        0.0189
     19 N          59.9126   87.8926    9.6390 N.3     1  UNL1       -0.2969
     20 H          58.8941   87.8777    9.5862 H       1  UNL1        0.1233
     21 C          64.4541   88.4276   14.7711 C.3     1  UNL1        0.0886
     22 N          63.4567   89.4241   14.2591 N.3     1  UNL1       -0.2667
     23 C          62.1020   89.5242   14.8954 C.3     1  UNL1        0.0899
     24 C          63.8140   90.3206   13.1107 C.3     1  UNL1        0.0978
     25 C          63.2346   90.0647   11.7510 C.3     1  UNL1        0.0224
     26 C          63.5919   90.9611   10.6027 C.3     1  UNL1        0.0065
     27 C          64.5286   92.1135   10.8140 C.3     1  UNL1        0.0277
     28 C          65.1079   92.3694   12.1737 C.ar    1  UNL1       -0.0073
     29 C          66.0446   93.5218   12.3850 C.ar    1  UNL1       -0.0015
     30 C          66.6240   93.7777   13.7448 C.ar    1  UNL1        0.0203
     31 C          66.2667   92.8812   14.8931 C.ar    1  UNL1        0.0985
     32 N          65.3301   91.7289   14.6818 N.ar    1  UNL1       -0.2471
     33 C          64.7507   91.4729   13.3221 C.ar    1  UNL1        0.0695
@<TRIPOS>BOND
     1    13    12    1
     2    13    14    1
     3    14    15    1
     4    15     1    1
     5     1     2   ar
     6     2     3   ar
     7     3     4   ar
     8     4     5   ar
     9     5     6   ar
    10     6     7    1
    11     7     8    1
    12     8    21    1
    13    21    22    1
    14    22    23    1
    15    24    22    1
    16    24    25    1
    17    25    26    1
    18    26    27    1
    19    27    28    1
    20    28    29   ar
    21    29    30   ar
    22    30    31   ar
    23    31    32   ar
    24    32    33   ar
    25     8     9    1
    26     9    10    1
    27    15    16    1
    28    16    17    1
    29    17    18    1
    30    17    19    1
    31    19    13    1
    32     6     1   ar
    33    33    24    1
    34    10     5    1
    35    33    28   ar
    36     9    11    1
    37    19    20    1
@<TRIPOS>MOLECULE
*****
 33 37 0 0 0
SMALL
GASTEIGER

@<TRIPOS>ATOM
      1 C          61.4706   86.4844    9.9041 C.ar    1  UNL1        0.0436
      2 C          60.8551   86.0465    8.6083 C.ar    1  UNL1        0.0142
      3 C          60.0285   87.0087    7.8077 C.ar    1  UNL1        0.0010
      4 C          59.8175   88.4088    8.3030 C.ar    1  UNL1       -0.0032
      5 C          60.4331   88.8466    9.5988 C.ar    1  UNL1       -0.0091
      6 C          61.2596   87.8845   10.3994 C.ar    1  UNL1       -0.0101
      7 C          61.8752   88.3223   11.6953 C.3     1  UNL1        0.0444
      8 C          61.6643   89.7224   12.1906 C.3     1  UNL1        0.0749
      9 N          60.8377   90.6846   11.3900 N.3     1  UNL1       -0.2934
     10 C          60.2221   90.2467   10.0941 C.3     1  UNL1        0.0954
     11 H          61.4376   91.4814   11.1766 H       1  UNL1        0.1236
     12 C          63.2834   84.8404   14.4880 C.3     1  UNL1        0.0189
     13 C          63.2036   84.7002   12.9967 C.3     1  UNL1        0.0741
     14 C          62.3770   85.6624   12.1960 C.3     1  UNL1        0.1064
     15 N          62.2972   85.5222   10.7048 N.pl3   1  UNL1       -0.3050
     16 C          63.0440   84.4198   10.0141 C.3     1  UNL1        0.1064
     17 C          63.8705   83.4576   10.8146 C.3     1  UNL1        0.0741
     18 C          64.6173   82.3552   10.1240 C.3     1  UNL1        0.0189
     19 N          63.9504   83.5978   12.3060 N.3     1  UNL1       -0.2969
     20 H          64.9361   83.7196   12.5380 H       1  UNL1        0.1233
     21 C          62.2798   90.1602   13.4865 C.3     1  UNL1        0.0886
     22 N          63.7333   89.9013   13.7517 N.3     1  UNL1       -0.2667
     23 C          64.2517   88.4939   13.7784 C.3     1  UNL1        0.0899
     24 C          64.6684   91.0496   13.9903 C.3     1  UNL1        0.0978
     25 C          65.2122   91.3007   15.3656 C.3     1  UNL1        0.0224
     26 C          66.1473   92.4491   15.6041 C.3     1  UNL1        0.0065
     27 C          66.5386   93.3463   14.4675 C.3     1  UNL1        0.0277
     28 C          65.9948   93.0951   13.0923 C.ar    1  UNL1       -0.0073
     29 C          66.3861   93.9924   11.9557 C.ar    1  UNL1       -0.0015
     30 C          65.8423   93.7412   10.5804 C.ar    1  UNL1        0.0203
     31 C          64.9072   92.5929   10.3419 C.ar    1  UNL1        0.0985
     32 N          64.5159   91.6957   11.4785 N.ar    1  UNL1       -0.2471
     33 C          65.0597   91.9468   12.8537 C.ar    1  UNL1        0.0695
@<TRIPOS>BOND
     1    13    12    1
     2    13    14    1
     3    14    15    1
     4    15     1    1
     5     1     2   ar
     6     2     3   ar
     7     3     4   ar
     8     4     5   ar
     9     5     6   ar
    10     6     7    1
    11     7     8    1
    12     8    21    1
    13    21    22    1
    14    22    23    1
    15    24    22    1
    16    24    25    1
    17    25    26    1
    18    26    27    1
    19    27    28    1
    20    28    29   ar
    21    29    30   ar
    22    30    31   ar
    23    31    32   ar
    24    32    33   ar
    25     8     9    1
    26     9    10    1
    27    15    16    1
    28    16    17    1
    29    17    18    1
    30    17    19    1
    31    19    13    1
    32     6     1   ar
    33    33    24    1
    34    10     5    1
    35    33    28   ar
    36     9    11    1
    37    19    20    1
@<TRIPOS>MOLECULE
*****
 33 37 0 0 0
SMALL
GASTEIGER

@<TRIPOS>ATOM
      1 C          62.9864   85.0019   11.3854 C.ar    1  UNL1        0.0436
      2 C          63.3701   83.5825   11.6821 C.ar    1  UNL1        0.0142
      3 C          64.0577   83.2455   12.9718 C.ar    1  UNL1        0.0010
      4 C          64.3616   84.3278   13.9649 C.ar    1  UNL1       -0.0032
      5 C          63.9778   85.7471   13.6683 C.ar    1  UNL1       -0.0091
      6 C          63.2902   86.0842   12.3785 C.ar    1  UNL1       -0.0101
      7 C          62.9064   87.5037   12.0818 C.3     1  UNL1        0.0444
      8 C          63.2103   88.5860   13.0750 C.3     1  UNL1        0.0749
      9 N          63.8979   88.2488   14.3648 N.3     1  UNL1       -0.2934
     10 C          64.2817   86.8295   14.6614 C.3     1  UNL1        0.0954
     11 H          63.2775   88.5494   15.1166 H       1  UNL1        0.1236
     12 C          62.7015   84.6416    6.2096 C.3     1  UNL1        0.0189
     13 C          62.1563   85.1589    7.5077 C.3     1  UNL1        0.0741
     14 C          62.8439   84.8218    8.7975 C.3     1  UNL1        0.1064
     15 N          62.2987   85.3390   10.0956 N.pl3   1  UNL1       -0.3050
     16 C          61.0659   86.1935   10.1040 C.3     1  UNL1        0.1064
     17 C          60.3783   86.5306    8.8143 C.3     1  UNL1        0.0741
     18 C          59.1454   87.3850    8.8226 C.3     1  UNL1        0.0189
     19 N          60.9235   86.0133    7.5161 N.3     1  UNL1       -0.2969
     20 H          61.1257   86.8278    6.9362 H       1  UNL1        0.1233
     21 C          62.8265   90.0053   12.7783 C.3     1  UNL1        0.0886
     22 N          63.3420   90.6788   11.5411 N.3     1  UNL1       -0.2667
     23 C          62.7749   90.3192   10.1998 C.3     1  UNL1        0.0899
     24 C          64.4246   91.7117   11.6452 C.3     1  UNL1        0.0978
     25 C          64.9032   92.4233   10.4144 C.3     1  UNL1        0.0224
     26 C          65.9858   93.4562   10.5184 C.3     1  UNL1        0.0065
     27 C          66.5899   93.7777   11.8532 C.3     1  UNL1        0.0277
     28 C          66.1114   93.0663   13.0840 C.ar    1  UNL1       -0.0073
     29 C          66.7155   93.3878   14.4188 C.ar    1  UNL1       -0.0015
     30 C          66.2369   92.6763   15.6496 C.ar    1  UNL1        0.0203
     31 C          65.1543   91.6433   15.5455 C.ar    1  UNL1        0.0985
     32 N          64.5502   91.3218   14.2107 N.ar    1  UNL1       -0.2471
     33 C          65.0287   92.0332   12.9800 C.ar    1  UNL1        0.0695
@<TRIPOS>BOND
     1    13    12    1
     2    13    14    1
     3    14    15    1
     4    15     1    1
     5     1     2   ar
     6     2     3   ar
     7     3     4   ar
     8     4     5   ar
     9     5     6   ar
    10     6     7    1
    11     7     8    1
    12     8    21    1
    13    21    22    1
    14    22    23    1
    15    24    22    1
    16    24    25    1
    17    25    26    1
    18    26    27    1
    19    27    28    1
    20    28    29   ar
    21    29    30   ar
    22    30    31   ar
    23    31    32   ar
    24    32    33   ar
    25     8     9    1
    26     9    10    1
    27    15    16    1
    28    16    17    1
    29    17    18    1
    30    17    19    1
    31    19    13    1
    32     6     1   ar
    33    33    24    1
    34    10     5    1
    35    33    28   ar
    36     9    11    1
    37    19    20    1
