@<TRIPOS>MOLECULE
*****
 38 43 0 0 0
SMALL
GASTEIGER

@<TRIPOS>ATOM
      1 C          62.7734   84.7514   15.7292 C.3     1  UNL1        0.0666
      2 S          63.1538   85.7286   16.8017 S.3     1  UNL1       -0.0756
      3 C          64.7295   87.0081   14.2464 C.3     1  UNL1        0.1340
      4 N          63.9947   87.7769   15.3042 N.ar    1  UNL1       -0.2884
      5 C          63.2704   87.1888   16.4788 C.ar    1  UNL1        0.1932
      6 N          62.6832   88.3172   17.2738 N.ar    1  UNL1       -0.1221
      7 N          63.0446   89.6027   16.5905 N.ar    1  UNL1       -0.1282
      8 C          63.8551   89.2689   15.3733 C.ar    1  UNL1        0.1668
      9 C          64.4259   90.2540   14.3966 C.ar    1  UNL1        0.0360
     10 C          63.6720   90.5912   13.1444 C.ar    1  UNL1        0.0032
     11 C          64.2428   91.5763   12.1677 C.ar    1  UNL1        0.0047
     12 C          65.5674   92.2241   12.4433 C.ar    1  UNL1        0.0536
     13 C          66.3212   91.8868   13.6955 C.ar    1  UNL1        0.0047
     14 C          65.7504   90.9017   14.6721 C.ar    1  UNL1        0.0032
     15 C          66.1381   93.2091   11.4666 C.ar    1  UNL1        0.2299
     16 N          66.1395   94.7014   11.6185 N.ar    1  UNL1       -0.2065
     17 C          66.8099   95.2895   10.4123 C.ar    1  UNL1        0.1427
     18 C          67.2229   94.1606    9.5150 C.ar    1  UNL1        0.2021
     19 O          66.8077   92.8749   10.1666 O.2     1  UNL1       -0.4314
     20 C          63.7745   83.7468   15.2406 C.3     1  UNL1        0.0294
     21 C          63.3629   82.6988   14.2495 C.3     1  UNL1        0.0730
     22 N          63.5174   82.9548   12.7796 N.3     1  UNL1       -0.2726
     23 C          64.2416   82.0763   11.8030 C.3     1  UNL1        0.0721
     24 C          64.1465   82.7129   10.4481 C.3     1  UNL1        0.0190
     25 C          63.3635   83.9847   10.5873 C.3     1  UNL1        0.0201
     26 C          63.4353   84.3723    9.1401 C.3     1  UNL1        0.0061
     27 C          62.7111   85.2507   10.1167 C.3     1  UNL1        0.0237
     28 C          62.9747   84.1342   12.0283 C.3     1  UNL1        0.0724
     29 C          61.9162   86.4888   10.4088 C.ar    1  UNL1       -0.0225
     30 C          62.4840   87.5510   11.3029 C.ar    1  UNL1       -0.0043
     31 C          61.6892   88.7891   11.5950 C.ar    1  UNL1        0.0035
     32 C          60.3266   88.9650   10.9931 C.ar    1  UNL1        0.0714
     33 C          59.7588   87.9027   10.0990 C.ar    1  UNL1        0.0035
     34 C          60.5536   86.6647    9.8069 C.ar    1  UNL1       -0.0043
     35 C          59.5317   90.2030   11.2852 C.3     1  UNL1        0.4186
     36 F          58.7369   91.4412   11.5774 F       1  UNL1       -0.1659
     37 F          58.7753   89.4661   12.3505 F       1  UNL1       -0.1659
     38 F          60.2881   90.9400   10.2200 F       1  UNL1       -0.1659
@<TRIPOS>BOND
     1     3     4    1
     2     4     5   ar
     3     5     2    1
     4     2     1    1
     5     1    20    1
     6    20    21    1
     7    21    22    1
     8    22    23    1
     9    23    24    1
    10    25    24    1
    11    25    26    1
    12    26    27    1
    13    27    29    1
    14    29    30   ar
    15    30    31   ar
    16    31    32   ar
    17    32    35    1
    18    35    36    1
    19    35    37    1
    20    35    38    1
    21    32    33   ar
    22    33    34   ar
    23    25    28    1
    24     5     6   ar
    25     6     7   ar
    26     7     8   ar
    27     8     9    1
    28     9    10   ar
    29    10    11   ar
    30    11    12   ar
    31    12    15    1
    32    15    16   ar
    33    16    17   ar
    34    17    18   ar
    35    18    19   ar
    36    12    13   ar
    37    13    14   ar
    38     8     4   ar
    39    14     9   ar
    40    28    22    1
    41    19    15   ar
    42    27    25    1
    43    34    29   ar
@<TRIPOS>MOLECULE
*****
 38 43 0 0 0
SMALL
GASTEIGER

@<TRIPOS>ATOM
      1 C          63.4471   86.3798   16.5945 C.3     1  UNL1        0.0666
      2 S          62.7547   87.6388   17.0250 S.3     1  UNL1       -0.0756
      3 C          64.3113   88.1343   14.1999 C.3     1  UNL1        0.1340
      4 N          63.9223   89.1922   15.1897 N.ar    1  UNL1       -0.2884
      5 C          63.2069   88.9645   16.4882 C.ar    1  UNL1        0.1932
      6 N          63.0229   90.2951   17.1557 N.ar    1  UNL1       -0.1221
      7 N          63.6246   91.3453   16.2697 N.ar    1  UNL1       -0.1282
      8 C          64.1805   90.6637   15.0546 C.ar    1  UNL1        0.1668
      9 C          64.8730   91.3356   13.9061 C.ar    1  UNL1        0.0360
     10 C          66.2530   91.8953   14.0860 C.ar    1  UNL1        0.0032
     11 C          66.9455   92.5672   12.9375 C.ar    1  UNL1        0.0047
     12 C          66.2579   92.6794   11.6091 C.ar    1  UNL1        0.0536
     13 C          64.8779   92.1196   11.4291 C.ar    1  UNL1        0.0047
     14 C          64.1855   91.4477   12.5777 C.ar    1  UNL1        0.0032
     15 C          66.9503   93.3513   10.4606 C.ar    1  UNL1        0.2299
     16 N          67.0708   94.8312   10.2475 N.ar    1  UNL1       -0.2065
     17 C          67.8388   95.0558    8.9788 C.ar    1  UNL1        0.1427
     18 C          68.1931   93.7147    8.4077 C.ar    1  UNL1        0.2021
     19 O          67.6439   92.6612    9.3236 O.2     1  UNL1       -0.4314
     20 C          62.7674   85.0536   16.7662 C.3     1  UNL1        0.0294
     21 C          62.0551   84.4203   15.6081 C.3     1  UNL1        0.0730
     22 N          62.8327   83.9553   14.4127 N.3     1  UNL1       -0.2726
     23 C          63.9543   82.9593   14.4234 C.3     1  UNL1        0.0721
     24 C          64.4401   82.7932   13.0140 C.3     1  UNL1        0.0190
     25 C          63.6188   83.6865   12.1322 C.3     1  UNL1        0.0201
     26 C          64.3063   83.3174   10.8512 C.3     1  UNL1        0.0061
     27 C          63.1848   84.3134   10.8405 C.3     1  UNL1        0.0237
     28 C          62.6254   84.4047   12.9967 C.3     1  UNL1        0.0724
     29 C          62.2867   85.2504   10.0885 C.ar    1  UNL1       -0.0225
     30 C          62.1828   85.1531    8.5953 C.ar    1  UNL1       -0.0043
     31 C          61.2847   86.0901    7.8433 C.ar    1  UNL1        0.0035
     32 C          60.4905   87.1243    8.5846 C.ar    1  UNL1        0.0714
     33 C          60.5943   87.2216   10.0779 C.ar    1  UNL1        0.0035
     34 C          61.4924   86.2846   10.8298 C.ar    1  UNL1       -0.0043
     35 C          59.5923   88.0613    7.8327 C.3     1  UNL1        0.4186
     36 F          58.6942   88.9983    7.0807 F       1  UNL1       -0.1659
     37 F          60.2193   89.2277    8.5373 F       1  UNL1       -0.1659
     38 F          58.9654   86.8949    7.1281 F       1  UNL1       -0.1659
@<TRIPOS>BOND
     1     3     4    1
     2     4     5   ar
     3     5     2    1
     4     2     1    1
     5     1    20    1
     6    20    21    1
     7    21    22    1
     8    22    23    1
     9    23    24    1
    10    25    24    1
    11    25    26    1
    12    26    27    1
    13    27    29    1
    14    29    30   ar
    15    30    31   ar
    16    31    32   ar
    17    32    35    1
    18    35    36    1
    19    35    37    1
    20    35    38    1
    21    32    33   ar
    22    33    34   ar
    23    25    28    1
    24     5     6   ar
    25     6     7   ar
    26     7     8   ar
    27     8     9    1
    28     9    10   ar
    29    10    11   ar
    30    11    12   ar
    31    12    15    1
    32    15    16   ar
    33    16    17   ar
    34    17    18   ar
    35    18    19   ar
    36    12    13   ar
    37    13    14   ar
    38     8     4   ar
    39    14     9   ar
    40    28    22    1
    41    19    15   ar
    42    27    25    1
    43    34    29   ar
@<TRIPOS>MOLECULE
*****
 38 43 0 0 0
SMALL
GASTEIGER

@<TRIPOS>ATOM
      1 C          64.6366   83.3892   12.4955 C.3     1  UNL1        0.0666
      2 S          63.6436   83.4200   11.3717 S.3     1  UNL1       -0.0756
      3 C          62.8552   84.8845    8.5640 C.3     1  UNL1        0.1340
      4 N          62.3591   85.2661    9.9272 N.ar    1  UNL1       -0.2884
      5 C          62.7215   84.5930   11.2177 C.ar    1  UNL1        0.1932
      6 N          61.9998   85.2988   12.3273 N.ar    1  UNL1       -0.1221
      7 N          61.1914   86.4082   11.7225 N.ar    1  UNL1       -0.1282
      8 C          61.4134   86.3880   10.2391 C.ar    1  UNL1        0.1668
      9 C          60.7979   87.3252    9.2426 C.ar    1  UNL1        0.0360
     10 C          59.9615   86.7840    8.1213 C.ar    1  UNL1        0.0032
     11 C          59.3460   87.7211    7.1248 C.ar    1  UNL1        0.0047
     12 C          59.5669   89.1995    7.2499 C.ar    1  UNL1        0.0536
     13 C          60.4033   89.7408    8.3712 C.ar    1  UNL1        0.0047
     14 C          61.0188   88.8035    9.3677 C.ar    1  UNL1        0.0032
     15 C          58.9514   90.1367    6.2534 C.ar    1  UNL1        0.2299
     16 N          59.6958   91.0536    5.3287 N.ar    1  UNL1       -0.2065
     17 C          58.6879   91.8050    4.5105 C.ar    1  UNL1        0.1427
     18 C          57.3205   91.3526    4.9295 C.ar    1  UNL1        0.2021
     19 O          57.4834   90.3214    6.0068 O.2     1  UNL1       -0.4314
     20 C          64.2583   83.9227   13.8455 C.3     1  UNL1        0.0294
     21 C          65.0714   85.0145   14.4753 C.3     1  UNL1        0.0730
     22 N          64.3900   86.1157   15.2323 N.3     1  UNL1       -0.2726
     23 C          63.5530   85.9507   16.4660 C.3     1  UNL1        0.0721
     24 C          63.0716   87.3083   16.8846 C.3     1  UNL1        0.0190
     25 C          63.6112   88.3124   15.9095 C.3     1  UNL1        0.0201
     26 C          62.9899   89.5125   16.5604 C.3     1  UNL1        0.0061
     27 C          63.8270   89.6776   15.3267 C.3     1  UNL1        0.0237
     28 C          64.4260   87.5753   14.8884 C.3     1  UNL1        0.0724
     29 C          64.4349   90.5610   14.2779 C.ar    1  UNL1       -0.0225
     30 C          65.7422   91.2478   14.5413 C.ar    1  UNL1       -0.0043
     31 C          66.3500   92.1312   13.4925 C.ar    1  UNL1        0.0035
     32 C          65.6506   92.3279   12.1803 C.ar    1  UNL1        0.0714
     33 C          64.3433   91.6412   11.9168 C.ar    1  UNL1        0.0035
     34 C          63.7354   90.7577   12.9656 C.ar    1  UNL1       -0.0043
     35 C          66.2584   93.2114   11.1315 C.3     1  UNL1        0.4186
     36 F          66.8663   94.0949   10.0826 F       1  UNL1       -0.1659
     37 F          66.6918   91.9992   10.3616 F       1  UNL1       -0.1659
     38 F          65.8250   94.4235   11.9013 F       1  UNL1       -0.1659
@<TRIPOS>BOND
     1     3     4    1
     2     4     5   ar
     3     5     2    1
     4     2     1    1
     5     1    20    1
     6    20    21    1
     7    21    22    1
     8    22    23    1
     9    23    24    1
    10    25    24    1
    11    25    26    1
    12    26    27    1
    13    27    29    1
    14    29    30   ar
    15    30    31   ar
    16    31    32   ar
    17    32    35    1
    18    35    36    1
    19    35    37    1
    20    35    38    1
    21    32    33   ar
    22    33    34   ar
    23    25    28    1
    24     5     6   ar
    25     6     7   ar
    26     7     8   ar
    27     8     9    1
    28     9    10   ar
    29    10    11   ar
    30    11    12   ar
    31    12    15    1
    32    15    16   ar
    33    16    17   ar
    34    17    18   ar
    35    18    19   ar
    36    12    13   ar
    37    13    14   ar
    38     8     4   ar
    39    14     9   ar
    40    28    22    1
    41    19    15   ar
    42    27    25    1
    43    34    29   ar
@<TRIPOS>MOLECULE
*****
 38 43 0 0 0
SMALL
GASTEIGER

@<TRIPOS>ATOM
      1 C          62.5496   86.9830   17.4598 C.3     1  UNL1        0.0666
      2 S          63.0527   88.3711   17.1951 S.3     1  UNL1       -0.0756
      3 C          63.9427   91.3596   16.2326 C.3     1  UNL1        0.1340
      4 N          63.9070   90.1307   15.3733 N.ar    1  UNL1       -0.2884
      5 C          63.4979   88.7570   15.8156 C.ar    1  UNL1        0.1932
      6 N          63.6121   87.8370   14.6364 N.ar    1  UNL1       -0.1221
      7 N          64.0919   88.6421   13.4652 N.ar    1  UNL1       -0.1282
      8 C          64.2741   90.0597   13.9205 C.ar    1  UNL1        0.1668
      9 C          64.7414   91.2051   13.0722 C.ar    1  UNL1        0.0360
     10 C          65.7662   92.1628   13.6036 C.ar    1  UNL1        0.0032
     11 C          66.2335   93.3082   12.7553 C.ar    1  UNL1        0.0047
     12 C          65.6758   93.4959   11.3755 C.ar    1  UNL1        0.0536
     13 C          64.6509   92.5382   10.8440 C.ar    1  UNL1        0.0047
     14 C          64.1837   91.3928   11.6925 C.ar    1  UNL1        0.0032
     15 C          66.1431   94.6413   10.5271 C.ar    1  UNL1        0.2299
     16 N          67.4845   94.7591    9.8661 N.ar    1  UNL1       -0.2065
     17 C          67.5215   96.0606    9.1213 C.ar    1  UNL1        0.1427
     18 C          66.2030   96.7472    9.3219 C.ar    1  UNL1        0.2021
     19 O          65.3511   95.8699   10.1908 O.2     1  UNL1       -0.4314
     20 C          63.2306   85.8052   16.8281 C.3     1  UNL1        0.0294
     21 C          62.4350   84.8230   16.0204 C.3     1  UNL1        0.0730
     22 N          63.0522   84.1613   14.8241 N.3     1  UNL1       -0.2726
     23 C          64.0288   83.0231   14.8521 C.3     1  UNL1        0.0721
     24 C          64.3813   82.6800   13.4350 C.3     1  UNL1        0.0190
     25 C          63.6227   83.6062   12.5313 C.3     1  UNL1        0.0201
     26 C          64.1572   83.0450   11.2471 C.3     1  UNL1        0.0061
     27 C          63.1807   84.1832   11.2191 C.3     1  UNL1        0.0237
     28 C          62.8012   84.5217   13.3898 C.3     1  UNL1        0.0724
     29 C          62.3617   85.1735   10.4455 C.ar    1  UNL1       -0.0225
     30 C          62.4845   85.2444    8.9522 C.ar    1  UNL1       -0.0043
     31 C          61.6655   86.2347    8.1785 C.ar    1  UNL1        0.0035
     32 C          60.7237   87.1540    8.8981 C.ar    1  UNL1        0.0714
     33 C          60.6010   87.0831   10.3914 C.ar    1  UNL1        0.0035
     34 C          61.4199   86.0928   11.1651 C.ar    1  UNL1       -0.0043
     35 C          59.9047   88.1443    8.1245 C.3     1  UNL1        0.4186
     36 F          59.0857   89.1346    7.3507 F       1  UNL1       -0.1659
     37 F          60.7004   89.2677    8.7201 F       1  UNL1       -0.1659
     38 F          59.1091   87.0209    7.5288 F       1  UNL1       -0.1659
@<TRIPOS>BOND
     1     3     4    1
     2     4     5   ar
     3     5     2    1
     4     2     1    1
     5     1    20    1
     6    20    21    1
     7    21    22    1
     8    22    23    1
     9    23    24    1
    10    25    24    1
    11    25    26    1
    12    26    27    1
    13    27    29    1
    14    29    30   ar
    15    30    31   ar
    16    31    32   ar
    17    32    35    1
    18    35    36    1
    19    35    37    1
    20    35    38    1
    21    32    33   ar
    22    33    34   ar
    23    25    28    1
    24     5     6   ar
    25     6     7   ar
    26     7     8   ar
    27     8     9    1
    28     9    10   ar
    29    10    11   ar
    30    11    12   ar
    31    12    15    1
    32    15    16   ar
    33    16    17   ar
    34    17    18   ar
    35    18    19   ar
    36    12    13   ar
    37    13    14   ar
    38     8     4   ar
    39    14     9   ar
    40    28    22    1
    41    19    15   ar
    42    27    25    1
    43    34    29   ar
@<TRIPOS>MOLECULE
*****
 38 43 0 0 0
SMALL
GASTEIGER

@<TRIPOS>ATOM
      1 C          59.9500   87.3558    8.4162 C.3     1  UNL1        0.0666
      2 S          59.7406   88.7174    9.0095 S.3     1  UNL1       -0.0756
      3 C          62.7189   89.9763    9.4505 C.3     1  UNL1        0.1340
      4 N          61.7335   89.6433   10.5313 N.ar    1  UNL1       -0.2884
      5 C          60.3645   89.0647   10.3286 C.ar    1  UNL1        0.1932
      6 N          59.7290   88.8943   11.6766 N.ar    1  UNL1       -0.1221
      7 N          60.7052   89.3677   12.7124 N.ar    1  UNL1       -0.1282
      8 C          61.9441   89.8306   12.0047 C.ar    1  UNL1        0.1668
      9 C          63.1771   90.3836   12.6558 C.ar    1  UNL1        0.0360
     10 C          63.7116   89.7526   13.9072 C.ar    1  UNL1        0.0032
     11 C          64.9446   90.3057   14.5584 C.ar    1  UNL1        0.0047
     12 C          65.6429   91.4898   13.9581 C.ar    1  UNL1        0.0536
     13 C          65.1083   92.1208   12.7067 C.ar    1  UNL1        0.0047
     14 C          63.8753   91.5677   12.0556 C.ar    1  UNL1        0.0032
     15 C          66.8758   92.0429   14.6093 C.ar    1  UNL1        0.2299
     16 N          66.9495   92.6650   15.9722 N.ar    1  UNL1       -0.2065
     17 C          68.3707   93.0776   16.2171 C.ar    1  UNL1        0.1427
     18 C          69.1754   92.7103   15.0056 C.ar    1  UNL1        0.2021
     19 O          68.2514   92.0708   14.0119 O.2     1  UNL1       -0.4314
     20 C          60.6999   86.3094    9.1861 C.3     1  UNL1        0.0294
     21 C          62.1655   86.1041    8.9411 C.3     1  UNL1        0.0730
     22 N          62.8923   84.9884    9.6316 N.3     1  UNL1       -0.2726
     23 C          63.4761   83.7747    8.9713 C.3     1  UNL1        0.0721
     24 C          64.1075   82.9267   10.0353 C.3     1  UNL1        0.0190
     25 C          63.9140   83.6163   11.3533 C.3     1  UNL1        0.0201
     26 C          64.6165   82.5787   12.1778 C.3     1  UNL1        0.0061
     27 C          64.0328   83.7924   12.8382 C.3     1  UNL1        0.0237
     28 C          63.1629   84.8905   11.1038 C.3     1  UNL1        0.0724
     29 C          63.7643   84.5949   14.0767 C.ar    1  UNL1       -0.0225
     30 C          64.5132   85.8716   14.3202 C.ar    1  UNL1       -0.0043
     31 C          64.2447   86.6740   15.5587 C.ar    1  UNL1        0.0035
     32 C          63.2273   86.1998   16.5537 C.ar    1  UNL1        0.0714
     33 C          62.4784   84.9231   16.3102 C.ar    1  UNL1        0.0035
     34 C          62.7469   84.1207   15.0717 C.ar    1  UNL1       -0.0043
     35 C          62.9589   87.0022   17.7923 C.3     1  UNL1        0.4186
     36 F          62.6904   87.8047   19.0309 F       1  UNL1       -0.1659
     37 F          63.4473   88.2385   17.0972 F       1  UNL1       -0.1659
     38 F          62.4704   85.7660   18.4873 F       1  UNL1       -0.1659
@<TRIPOS>BOND
     1     3     4    1
     2     4     5   ar
     3     5     2    1
     4     2     1    1
     5     1    20    1
     6    20    21    1
     7    21    22    1
     8    22    23    1
     9    23    24    1
    10    25    24    1
    11    25    26    1
    12    26    27    1
    13    27    29    1
    14    29    30   ar
    15    30    31   ar
    16    31    32   ar
    17    32    35    1
    18    35    36    1
    19    35    37    1
    20    35    38    1
    21    32    33   ar
    22    33    34   ar
    23    25    28    1
    24     5     6   ar
    25     6     7   ar
    26     7     8   ar
    27     8     9    1
    28     9    10   ar
    29    10    11   ar
    30    11    12   ar
    31    12    15    1
    32    15    16   ar
    33    16    17   ar
    34    17    18   ar
    35    18    19   ar
    36    12    13   ar
    37    13    14   ar
    38     8     4   ar
    39    14     9   ar
    40    28    22    1
    41    19    15   ar
    42    27    25    1
    43    34    29   ar
@<TRIPOS>MOLECULE
*****
 38 43 0 0 0
SMALL
GASTEIGER

@<TRIPOS>ATOM
      1 C          58.8350   91.1108    4.8165 C.3     1  UNL1        0.0666
      2 S          59.4221   92.4133    4.3597 S.3     1  UNL1       -0.0756
      3 C          59.7982   94.0266    1.5481 C.3     1  UNL1        0.1340
      4 N          60.8284   93.1631    2.2138 N.ar    1  UNL1       -0.2884
      5 C          60.6555   92.4216    3.5061 C.ar    1  UNL1        0.1932
      6 N          61.9326   91.6897    3.7951 N.ar    1  UNL1       -0.1221
      7 N          62.8948   91.9790    2.6813 N.ar    1  UNL1       -0.1282
      8 C          62.2124   92.8896    1.7039 C.ar    1  UNL1        0.1668
      9 C          62.8091   93.4315    0.4389 C.ar    1  UNL1        0.0360
     10 C          62.1708   93.1242   -0.8832 C.ar    1  UNL1        0.0032
     11 C          62.7675   93.6660   -2.1482 C.ar    1  UNL1        0.0047
     12 C          64.0027   94.5153   -2.0910 C.ar    1  UNL1        0.0536
     13 C          64.6411   94.8226   -0.7689 C.ar    1  UNL1        0.0047
     14 C          64.0443   94.2806    0.4961 C.ar    1  UNL1        0.0032
     15 C          64.5995   95.0571   -3.3560 C.ar    1  UNL1        0.2299
     16 N          64.6398   94.3574   -4.6822 N.ar    1  UNL1       -0.2065
     17 C          65.3259   95.2616   -5.6628 C.ar    1  UNL1        0.1427
     18 C          65.7097   96.5203   -4.9427 C.ar    1  UNL1        0.2021
     19 O          65.2607   96.3939   -3.5170 O.2     1  UNL1       -0.4314
     20 C          59.5741   90.2616    5.8078 C.3     1  UNL1        0.0294
     21 C          58.8524   89.6918    6.9929 C.3     1  UNL1        0.0730
     22 N          59.4720   88.5784    7.7842 N.3     1  UNL1       -0.2726
     23 C          59.1439   87.1199    7.6604 C.3     1  UNL1        0.0721
     24 C          59.9978   86.3681    8.6380 C.3     1  UNL1        0.0190
     25 C          60.8535   87.3619    9.3661 C.3     1  UNL1        0.0201
     26 C          61.5593   86.3585   10.2292 C.3     1  UNL1        0.0061
     27 C          61.8874   87.8169   10.3531 C.3     1  UNL1        0.0237
     28 C          60.5286   88.7279    8.8384 C.3     1  UNL1        0.0724
     29 C          62.6737   88.9216   10.9944 C.ar    1  UNL1       -0.0225
     30 C          63.1676   88.7708   12.4028 C.ar    1  UNL1       -0.0043
     31 C          63.9539   89.8755   13.0441 C.ar    1  UNL1        0.0035
     32 C          64.2463   91.1310   12.2771 C.ar    1  UNL1        0.0714
     33 C          63.7524   91.2818   10.8688 C.ar    1  UNL1        0.0035
     34 C          62.9661   90.1771   10.2274 C.ar    1  UNL1       -0.0043
     35 C          65.0326   92.2357   12.9184 C.3     1  UNL1        0.4186
     36 F          65.8189   93.3405   13.5598 F       1  UNL1       -0.1659
     37 F          65.1194   91.4381   14.1858 F       1  UNL1       -0.1659
     38 F          64.9457   93.0333   11.6511 F       1  UNL1       -0.1659
@<TRIPOS>BOND
     1     3     4    1
     2     4     5   ar
     3     5     2    1
     4     2     1    1
     5     1    20    1
     6    20    21    1
     7    21    22    1
     8    22    23    1
     9    23    24    1
    10    25    24    1
    11    25    26    1
    12    26    27    1
    13    27    29    1
    14    29    30   ar
    15    30    31   ar
    16    31    32   ar
    17    32    35    1
    18    35    36    1
    19    35    37    1
    20    35    38    1
    21    32    33   ar
    22    33    34   ar
    23    25    28    1
    24     5     6   ar
    25     6     7   ar
    26     7     8   ar
    27     8     9    1
    28     9    10   ar
    29    10    11   ar
    30    11    12   ar
    31    12    15    1
    32    15    16   ar
    33    16    17   ar
    34    17    18   ar
    35    18    19   ar
    36    12    13   ar
    37    13    14   ar
    38     8     4   ar
    39    14     9   ar
    40    28    22    1
    41    19    15   ar
    42    27    25    1
    43    34    29   ar
@<TRIPOS>MOLECULE
*****
 38 43 0 0 0
SMALL
GASTEIGER

@<TRIPOS>ATOM
      1 C          63.4593   89.9973   16.0501 C.3     1  UNL1        0.0666
      2 S          63.4422   88.8943   17.0664 S.3     1  UNL1       -0.0756
      3 C          64.3557   87.0190   14.5567 C.3     1  UNL1        0.1340
      4 N          63.2864   86.6937   15.5571 N.ar    1  UNL1       -0.2884
      5 C          62.8665   87.5556   16.7107 C.ar    1  UNL1        0.1932
      6 N          61.7698   86.8440   17.4461 N.ar    1  UNL1       -0.1221
      7 N          61.5119   85.5421   16.7470 N.ar    1  UNL1       -0.1282
      8 C          62.4491   85.4492   15.5796 C.ar    1  UNL1        0.1668
      9 C          62.5343   84.3116   14.6056 C.ar    1  UNL1        0.0360
     10 C          62.4830   82.8961   15.0993 C.ar    1  UNL1        0.0032
     11 C          62.5681   81.7585   14.1253 C.ar    1  UNL1        0.0047
     12 C          62.7045   82.0365   12.6576 C.ar    1  UNL1        0.0536
     13 C          62.7558   83.4519   12.1639 C.ar    1  UNL1        0.0047
     14 C          62.6706   84.5895   13.1379 C.ar    1  UNL1        0.0032
     15 C          62.7896   80.8989   11.6836 C.ar    1  UNL1        0.2299
     16 N          63.1209   81.0101   10.2249 N.ar    1  UNL1       -0.2065
     17 C          63.0944   79.6303    9.6371 C.ar    1  UNL1        0.1427
     18 C          62.7468   78.6663   10.7325 C.ar    1  UNL1        0.2021
     19 O          62.5584   79.4504   11.9974 O.2     1  UNL1       -0.4314
     20 C          63.8422   91.3887   16.4596 C.3     1  UNL1        0.0294
     21 C          65.1814   91.9426   16.0729 C.3     1  UNL1        0.0730
     22 N          65.4362   92.3695   14.6576 N.3     1  UNL1       -0.2726
     23 C          66.4154   93.4160   14.2151 C.3     1  UNL1        0.0721
     24 C          66.3409   93.5180   12.7204 C.3     1  UNL1        0.0190
     25 C          65.3155   92.5345   12.2392 C.3     1  UNL1        0.0201
     26 C          65.4617   92.8562   10.7814 C.3     1  UNL1        0.0061
     27 C          64.4824   91.8097   11.2240 C.3     1  UNL1        0.0237
     28 C          64.7564   91.8247   13.4365 C.3     1  UNL1        0.0724
     29 C          63.4361   90.7870   10.8934 C.ar    1  UNL1       -0.0225
     30 C          62.5096   91.0094    9.7348 C.ar    1  UNL1       -0.0043
     31 C          61.4633   89.9868    9.4042 C.ar    1  UNL1        0.0035
     32 C          61.3434   88.7417   10.2322 C.ar    1  UNL1        0.0714
     33 C          62.2698   88.5194   11.3908 C.ar    1  UNL1        0.0035
     34 C          63.3162   89.5420   11.7214 C.ar    1  UNL1       -0.0043
     35 C          60.2970   87.7191    9.9017 C.3     1  UNL1        0.4186
     36 F          59.2506   86.6964    9.5711 F       1  UNL1       -0.1659
     37 F          59.9572   88.4716    8.6494 F       1  UNL1       -0.1659
     38 F          60.6368   86.9666   11.1539 F       1  UNL1       -0.1659
@<TRIPOS>BOND
     1     3     4    1
     2     4     5   ar
     3     5     2    1
     4     2     1    1
     5     1    20    1
     6    20    21    1
     7    21    22    1
     8    22    23    1
     9    23    24    1
    10    25    24    1
    11    25    26    1
    12    26    27    1
    13    27    29    1
    14    29    30   ar
    15    30    31   ar
    16    31    32   ar
    17    32    35    1
    18    35    36    1
    19    35    37    1
    20    35    38    1
    21    32    33   ar
    22    33    34   ar
    23    25    28    1
    24     5     6   ar
    25     6     7   ar
    26     7     8   ar
    27     8     9    1
    28     9    10   ar
    29    10    11   ar
    30    11    12   ar
    31    12    15    1
    32    15    16   ar
    33    16    17   ar
    34    17    18   ar
    35    18    19   ar
    36    12    13   ar
    37    13    14   ar
    38     8     4   ar
    39    14     9   ar
    40    28    22    1
    41    19    15   ar
    42    27    25    1
    43    34    29   ar
