@<TRIPOS>MOLECULE
*****
 31 32 0 0 0
SMALL
GASTEIGER

@<TRIPOS>ATOM
      1 C          63.0814   85.1823   12.4451 C.ar    1  UNL1        0.1409
      2 C          63.7144   83.8617   12.1208 C.ar    1  UNL1        0.0460
      3 C          63.8165   83.4091   10.6944 C.ar    1  UNL1        0.1356
      4 O          64.4496   82.0884   10.3701 O.3     1  UNL1       -0.5056
      5 C          63.2856   84.2771    9.5922 C.ar    1  UNL1        0.0739
      6 C          62.6526   85.5977    9.9165 C.ar    1  UNL1        0.1514
      7 O          62.0451   86.6596    9.0486 O.2     1  UNL1       -0.4502
      8 C          61.5675   87.7685    9.9387 C.ar    1  UNL1        0.1797
      9 C          61.8798   87.3920   11.3567 C.ar    1  UNL1        0.0467
     10 C          62.5505   86.0503   11.3430 C.ar    1  UNL1        0.0715
     11 H          64.7812   81.5461   11.0585 H       1  UNL1        0.2922
     12 O          62.9792   85.6349   13.8715 O.3     1  UNL1       -0.4708
     13 C          64.1098   86.3941   14.5003 C.3     1  UNL1        0.2311
     14 C          63.3081   88.4664   16.5160 C.3     1  UNL1        0.0261
     15 C          63.8964   88.8866   15.2016 C.2     1  UNL1       -0.0445
     16 C          64.2972   87.8505   14.1937 C.2     1  UNL1        0.0122
     17 C          64.0837   90.3430   14.8952 C.3     1  UNL1        0.0244
     18 C          65.3792   90.8265   14.3138 C.3     1  UNL1        0.0360
     19 C          66.1348   91.9352   14.9845 C.3     1  UNL1        0.1352
     20 O          65.4380   92.8319   15.9645 O.3     1  UNL1       -0.3821
     21 H          66.0651   93.4901   16.3029 H       1  UNL1        0.2104
     22 C          67.5871   92.1473   14.6751 C.3     1  UNL1        0.1129
     23 C          67.3089   91.9265   13.2178 C.3     1  UNL1        0.0318
     24 C          67.8653   92.3681   16.1324 C.3     1  UNL1        0.0318
     25 O          69.0395   92.3593   14.3657 O.3     1  UNL1       -0.3844
     26 H          69.1829   92.2704   13.4105 H       1  UNL1        0.2103
     27 C          64.2453   82.9936   13.2230 C.3     1  UNL1        0.0384
     28 C          63.2971   82.2269   14.0965 C.3     1  UNL1        0.0466
     29 C          62.3573   81.2286   13.4880 C.2     1  UNL1        0.0507
     30 O          62.7870   80.4223   12.2984 O.co2   1  UNL1       -0.5492
     31 O          60.9878   81.0366   14.0692 O.co2   1  UNL1       -0.5492
@<TRIPOS>UNITY_ATOM_ATTR
30 1
charge -1
@<TRIPOS>BOND
     1    14    15    1
     2    15    16    2
     3    16    13    1
     4    13    12    1
     5    12     1    1
     6     1     2   ar
     7     2    27    1
     8    27    28    1
     9    28    29    1
    10    29    30   ar
    11    29    31   ar
    12     2     3   ar
    13     3     4    1
    14     3     5   ar
    15     5     6   ar
    16     6     7   ar
    17     7     8   ar
    18     8     9   ar
    19     9    10   ar
    20    15    17    1
    21    17    18    1
    22    18    19    1
    23    19    20    1
    24    19    22    1
    25    22    23    1
    26    22    24    1
    27    22    25    1
    28    10     1   ar
    29    10     6   ar
    30     4    11    1
    31    20    21    1
    32    25    26    1
@<TRIPOS>MOLECULE
*****
 31 32 0 0 0
SMALL
GASTEIGER

@<TRIPOS>ATOM
      1 C          63.6731   90.5720   13.3268 C.ar    1  UNL1        0.1409
      2 C          63.1108   90.6227   11.9371 C.ar    1  UNL1        0.0460
      3 C          63.7172   91.5384   10.9156 C.ar    1  UNL1        0.1356
      4 O          63.1548   91.5890    9.5258 O.3     1  UNL1       -0.5056
      5 C          64.8860   92.4036   11.2837 C.ar    1  UNL1        0.0739
      6 C          65.4483   92.3530   12.6734 C.ar    1  UNL1        0.1514
      7 O          66.5862   93.0832   13.3229 O.2     1  UNL1       -0.4502
      8 C          66.6831   92.6187   14.7458 C.ar    1  UNL1        0.1797
      9 C          65.6050   91.6014   14.9758 C.ar    1  UNL1        0.0467
     10 C          64.8419   91.4372   13.6949 C.ar    1  UNL1        0.0715
     11 H          62.4248   91.0486    9.2959 H       1  UNL1        0.2922
     12 O          63.0667   89.6562   14.3484 O.3     1  UNL1       -0.4708
     13 C          63.9451   88.7490   15.1578 C.3     1  UNL1        0.2311
     14 C          63.4704   86.1227   16.5279 C.3     1  UNL1        0.0261
     15 C          64.2361   86.1685   15.2388 C.2     1  UNL1       -0.0445
     16 C          64.4734   87.4817   14.5537 C.2     1  UNL1        0.0122
     17 C          64.7643   84.9012   14.6348 C.3     1  UNL1        0.0244
     18 C          63.9194   84.1197   13.6728 C.3     1  UNL1        0.0360
     19 C          63.2164   82.8764   14.1309 C.3     1  UNL1        0.1352
     20 O          62.7349   82.7655   15.5471 O.3     1  UNL1       -0.3821
     21 H          62.3057   81.9053   15.6764 H       1  UNL1        0.2104
     22 C          62.9948   81.7438   13.1726 C.3     1  UNL1        0.1129
     23 C          64.1793   82.1922   12.3689 C.3     1  UNL1        0.0318
     24 C          61.8103   81.2955   13.9764 C.3     1  UNL1        0.0318
     25 O          62.7732   80.6113   12.2144 O.3     1  UNL1       -0.3844
     26 H          63.4476   80.6405   11.5178 H       1  UNL1        0.2103
     27 C          61.9420   89.7575   11.5690 C.3     1  UNL1        0.0384
     28 C          62.1653   88.4660   10.8394 C.3     1  UNL1        0.0466
     29 C          61.1232   87.3882   10.8865 C.2     1  UNL1        0.0507
     30 O          59.8683   87.5222   10.0758 O.co2   1  UNL1       -0.5492
     31 O          61.3361   86.1761   11.7443 O.co2   1  UNL1       -0.5492
@<TRIPOS>UNITY_ATOM_ATTR
30 1
charge -1
@<TRIPOS>BOND
     1    14    15    1
     2    15    16    2
     3    16    13    1
     4    13    12    1
     5    12     1    1
     6     1     2   ar
     7     2    27    1
     8    27    28    1
     9    28    29    1
    10    29    30   ar
    11    29    31   ar
    12     2     3   ar
    13     3     4    1
    14     3     5   ar
    15     5     6   ar
    16     6     7   ar
    17     7     8   ar
    18     8     9   ar
    19     9    10   ar
    20    15    17    1
    21    17    18    1
    22    18    19    1
    23    19    20    1
    24    19    22    1
    25    22    23    1
    26    22    24    1
    27    22    25    1
    28    10     1   ar
    29    10     6   ar
    30     4    11    1
    31    20    21    1
    32    25    26    1
@<TRIPOS>MOLECULE
*****
 31 32 0 0 0
SMALL
GASTEIGER

@<TRIPOS>ATOM
      1 C          62.6063   85.8487   11.2592 C.ar    1  UNL1        0.1409
      2 C          62.5650   85.7555    9.7627 C.ar    1  UNL1        0.0460
      3 C          63.1042   84.5382    9.0719 C.ar    1  UNL1        0.1356
      4 O          63.0629   84.4450    7.5753 O.3     1  UNL1       -0.5056
      5 C          63.6848   83.4139    9.8776 C.ar    1  UNL1        0.0739
      6 C          63.7261   83.5071   11.3741 C.ar    1  UNL1        0.1514
      7 O          64.2342   82.5648   12.4247 O.2     1  UNL1       -0.4502
      8 C          64.0090   83.1998   13.7649 C.ar    1  UNL1        0.1797
      9 C          63.3617   84.5345   13.5426 C.ar    1  UNL1        0.0467
     10 C          63.1868   84.7245   12.0649 C.ar    1  UNL1        0.0715
     11 H          62.7002   85.1472    7.0720 H       1  UNL1        0.2922
     12 O          62.0670   87.0660   11.9501 O.3     1  UNL1       -0.4708
     13 C          62.6417   88.4176   11.6454 C.3     1  UNL1        0.2311
     14 C          63.5769   91.2123   11.0841 C.3     1  UNL1        0.0261
     15 C          63.7083   90.6405   12.4647 C.2     1  UNL1       -0.0445
     16 C          63.2407   89.2432   12.7453 C.2     1  UNL1        0.0122
     17 C          64.3072   91.4661   13.5645 C.3     1  UNL1        0.0244
     18 C          65.6331   91.0836   14.1525 C.3     1  UNL1        0.0360
     19 C          66.4377   92.0973   14.9109 C.3     1  UNL1        0.1352
     20 O          65.7632   93.0059   15.8955 O.3     1  UNL1       -0.3821
     21 H          66.4217   93.5956   16.2950 H       1  UNL1        0.2104
     22 C          67.9168   92.2023   14.6846 C.3     1  UNL1        0.1129
     23 C          67.7074   91.9859   13.2152 C.3     1  UNL1        0.0318
     24 C          68.1262   92.4187   16.1540 C.3     1  UNL1        0.0318
     25 O          69.3959   92.3073   14.4583 O.3     1  UNL1       -0.3844
     26 H          69.5871   92.1980   13.5137 H       1  UNL1        0.2103
     27 C          61.9844   86.8797    8.9570 C.3     1  UNL1        0.0384
     28 C          60.5003   87.0965    8.9327 C.3     1  UNL1        0.0466
     29 C          59.6559   86.3904    7.9137 C.2     1  UNL1        0.0507
     30 O          58.2000   86.7270    7.7830 O.co2   1  UNL1       -0.5492
     31 O          60.2673   85.3476    7.0255 O.co2   1  UNL1       -0.5492
@<TRIPOS>UNITY_ATOM_ATTR
30 1
charge -1
@<TRIPOS>BOND
     1    14    15    1
     2    15    16    2
     3    16    13    1
     4    13    12    1
     5    12     1    1
     6     1     2   ar
     7     2    27    1
     8    27    28    1
     9    28    29    1
    10    29    30   ar
    11    29    31   ar
    12     2     3   ar
    13     3     4    1
    14     3     5   ar
    15     5     6   ar
    16     6     7   ar
    17     7     8   ar
    18     8     9   ar
    19     9    10   ar
    20    15    17    1
    21    17    18    1
    22    18    19    1
    23    19    20    1
    24    19    22    1
    25    22    23    1
    26    22    24    1
    27    22    25    1
    28    10     1   ar
    29    10     6   ar
    30     4    11    1
    31    20    21    1
    32    25    26    1
@<TRIPOS>MOLECULE
*****
 31 32 0 0 0
SMALL
GASTEIGER

@<TRIPOS>ATOM
      1 C          62.9850   84.9396   12.3955 C.ar    1  UNL1        0.1409
      2 C          63.7364   83.6897   12.0448 C.ar    1  UNL1        0.0460
      3 C          63.9335   83.3115   10.6068 C.ar    1  UNL1        0.1356
      4 O          64.6849   82.0614   10.2562 O.3     1  UNL1       -0.5056
      5 C          63.3791   84.1833    9.5192 C.ar    1  UNL1        0.0739
      6 C          62.6277   85.4332    9.8699 C.ar    1  UNL1        0.1514
      7 O          61.9716   86.4814    9.0208 O.2     1  UNL1       -0.4502
      8 C          61.3691   87.5074    9.9342 C.ar    1  UNL1        0.1797
      9 C          61.6528   87.0933   11.3478 C.ar    1  UNL1        0.0467
     10 C          62.4307   85.8114   11.3080 C.ar    1  UNL1        0.0715
     11 H          65.0312   81.5168   10.9355 H       1  UNL1        0.2922
     12 O          62.7880   85.3178   13.8336 O.3     1  UNL1       -0.4708
     13 C          63.9000   85.9764   14.5950 C.3     1  UNL1        0.2311
     14 C          63.1844   88.0439   16.6476 C.3     1  UNL1        0.0261
     15 C          63.8666   88.4540   15.3762 C.2     1  UNL1       -0.0445
     16 C          64.2244   87.4202   14.3499 C.2     1  UNL1        0.0122
     17 C          64.1909   89.8979   15.1311 C.3     1  UNL1        0.0244
     18 C          64.5962   90.3534   13.7606 C.3     1  UNL1        0.0360
     19 C          63.5482   90.6702   12.7352 C.3     1  UNL1        0.1352
     20 O          62.1413   90.1866   12.9264 O.3     1  UNL1       -0.3821
     21 H          61.5955   90.4757   12.1785 H       1  UNL1        0.2104
     22 C          63.9072   91.4708   11.5185 C.3     1  UNL1        0.1129
     23 C          65.0154   92.1337   12.2817 C.3     1  UNL1        0.0318
     24 C          62.7990   90.8079   10.7553 C.3     1  UNL1        0.0318
     25 O          64.2662   92.2713   10.3019 O.3     1  UNL1       -0.3844
     26 H          65.0193   92.8480   10.5049 H       1  UNL1        0.2103
     27 C          64.2908   82.8179   13.1324 C.3     1  UNL1        0.0384
     28 C          63.3627   82.0265   14.0055 C.3     1  UNL1        0.0466
     29 C          62.3949   81.0602   13.3893 C.2     1  UNL1        0.0507
     30 O          61.0577   80.8280   14.0280 O.co2   1  UNL1       -0.5492
     31 O          62.7643   80.3261   12.1344 O.co2   1  UNL1       -0.5492
@<TRIPOS>UNITY_ATOM_ATTR
30 1
charge -1
@<TRIPOS>BOND
     1    14    15    1
     2    15    16    2
     3    16    13    1
     4    13    12    1
     5    12     1    1
     6     1     2   ar
     7     2    27    1
     8    27    28    1
     9    28    29    1
    10    29    30   ar
    11    29    31   ar
    12     2     3   ar
    13     3     4    1
    14     3     5   ar
    15     5     6   ar
    16     6     7   ar
    17     7     8   ar
    18     8     9   ar
    19     9    10   ar
    20    15    17    1
    21    17    18    1
    22    18    19    1
    23    19    20    1
    24    19    22    1
    25    22    23    1
    26    22    24    1
    27    22    25    1
    28    10     1   ar
    29    10     6   ar
    30     4    11    1
    31    20    21    1
    32    25    26    1
@<TRIPOS>MOLECULE
*****
 31 32 0 0 0
SMALL
GASTEIGER

@<TRIPOS>ATOM
      1 C          62.8126   88.8536   11.9308 C.ar    1  UNL1        0.1409
      2 C          62.5512   89.6757   10.7037 C.ar    1  UNL1        0.0460
      3 C          63.1921   91.0234   10.5532 C.ar    1  UNL1        0.1356
      4 O          62.9307   91.8455    9.3260 O.3     1  UNL1       -0.5056
      5 C          64.0945   91.5492   11.6299 C.ar    1  UNL1        0.0739
      6 C          64.3559   90.7272   12.8571 C.ar    1  UNL1        0.1514
      7 O          65.1930   90.9810   14.0756 O.2     1  UNL1       -0.4502
      8 C          65.0694   89.7901   14.9791 C.ar    1  UNL1        0.1797
      9 C          64.1559   88.8002   14.3190 C.ar    1  UNL1        0.0467
     10 C          63.7150   89.3794   13.0075 C.ar    1  UNL1        0.0715
     11 H          62.3670   91.5170    8.6534 H       1  UNL1        0.2922
     12 O          62.1716   87.5058   12.0812 O.3     1  UNL1       -0.4708
     13 C          62.2819   86.4955   10.9780 C.3     1  UNL1        0.2311
     14 C          63.2675   84.7804    8.7226 C.3     1  UNL1        0.0261
     15 C          63.3367   84.2764   10.1337 C.2     1  UNL1       -0.0445
     16 C          62.8439   85.1339   11.2615 C.2     1  UNL1        0.0122
     17 C          63.8987   82.9148   10.4171 C.3     1  UNL1        0.0244
     18 C          64.2720   82.5344   11.8192 C.3     1  UNL1        0.0360
     19 C          63.3285   81.7174   12.6512 C.3     1  UNL1        0.1352
     20 O          62.7608   80.4406   12.1058 O.3     1  UNL1       -0.3821
     21 H          62.1740   80.0397   12.7659 H       1  UNL1        0.2104
     22 C          62.9526   82.1773   14.0286 C.3     1  UNL1        0.1129
     23 C          61.7526   81.2777   14.0014 C.3     1  UNL1        0.0318
     24 C          64.1525   83.0768   14.0558 C.3     1  UNL1        0.0318
     25 O          62.5766   82.6371   15.4060 O.3     1  UNL1       -0.3844
     26 H          61.7640   82.1877   15.6863 H       1  UNL1        0.2103
     27 C          61.6488   89.1499    9.6269 C.3     1  UNL1        0.0384
     28 C          60.1620   89.3033    9.7533 C.3     1  UNL1        0.0466
     29 C          59.5604   89.7299   11.0595 C.2     1  UNL1        0.0507
     30 O          59.3035   88.7152   12.1338 O.co2   1  UNL1       -0.5492
     31 O          59.2158   91.1714   11.2912 O.co2   1  UNL1       -0.5492
@<TRIPOS>UNITY_ATOM_ATTR
30 1
charge -1
@<TRIPOS>BOND
     1    14    15    1
     2    15    16    2
     3    16    13    1
     4    13    12    1
     5    12     1    1
     6     1     2   ar
     7     2    27    1
     8    27    28    1
     9    28    29    1
    10    29    30   ar
    11    29    31   ar
    12     2     3   ar
    13     3     4    1
    14     3     5   ar
    15     5     6   ar
    16     6     7   ar
    17     7     8   ar
    18     8     9   ar
    19     9    10   ar
    20    15    17    1
    21    17    18    1
    22    18    19    1
    23    19    20    1
    24    19    22    1
    25    22    23    1
    26    22    24    1
    27    22    25    1
    28    10     1   ar
    29    10     6   ar
    30     4    11    1
    31    20    21    1
    32    25    26    1
@<TRIPOS>MOLECULE
*****
 31 32 0 0 0
SMALL
GASTEIGER

@<TRIPOS>ATOM
      1 C          61.8693   87.3257   10.3104 C.ar    1  UNL1        0.1409
      2 C          62.0197   88.5572   11.1534 C.ar    1  UNL1        0.0460
      3 C          61.1468   89.7504   10.9004 C.ar    1  UNL1        0.1356
      4 O          61.2972   90.9820   11.7436 O.3     1  UNL1       -0.5056
      5 C          60.1235   89.7123    9.8043 C.ar    1  UNL1        0.0739
      6 C          59.9731   88.4808    8.9613 C.ar    1  UNL1        0.1514
      7 O          59.0589   88.1524    7.8183 O.2     1  UNL1       -0.4502
      8 C          59.3668   86.7561    7.3650 C.ar    1  UNL1        0.1797
      9 C          60.4713   86.2215    8.2277 C.ar    1  UNL1        0.0467
     10 C          60.8461   87.2875    9.2143 C.ar    1  UNL1        0.0715
     11 H          61.9364   91.0059   12.4282 H       1  UNL1        0.2922
     12 O          62.7423   86.1324   10.5634 O.3     1  UNL1       -0.4708
     13 C          62.1393   84.8561   11.0709 C.3     1  UNL1        0.2311
     14 C          63.2129   82.0712   11.3734 C.3     1  UNL1        0.0261
     15 C          63.0480   82.9466   12.5803 C.2     1  UNL1       -0.0445
     16 C          62.5112   84.3391   12.4291 C.2     1  UNL1        0.0122
     17 C          63.4198   82.4296   13.9384 C.3     1  UNL1        0.0244
     18 C          63.4269   83.3564   15.1177 C.3     1  UNL1        0.0360
     19 C          64.3052   84.5724   15.1108 C.3     1  UNL1        0.1352
     20 O          65.6928   84.4921   14.5466 O.3     1  UNL1       -0.3821
     21 H          66.1218   85.3590   14.6187 H       1  UNL1        0.2104
     22 C          63.7960   85.8686   15.6679 C.3     1  UNL1        0.1129
     23 C          64.8295   86.6145   14.8770 C.3     1  UNL1        0.0318
     24 C          62.7625   85.1227   16.4588 C.3     1  UNL1        0.0318
     25 O          63.2868   87.1649   16.2250 O.3     1  UNL1       -0.3844
     26 H          63.8071   87.8990   15.8629 H       1  UNL1        0.2103
     27 C          63.0431   88.5953   12.2496 C.3     1  UNL1        0.0384
     28 C          63.6862   89.8959   12.6301 C.3     1  UNL1        0.0466
     29 C          63.5383   90.4256   14.0257 C.2     1  UNL1        0.0507
     30 O          64.2513   91.6817   14.4306 O.co2   1  UNL1       -0.5492
     31 O          62.6774   89.6993   15.0164 O.co2   1  UNL1       -0.5492
@<TRIPOS>UNITY_ATOM_ATTR
30 1
charge -1
@<TRIPOS>BOND
     1    14    15    1
     2    15    16    2
     3    16    13    1
     4    13    12    1
     5    12     1    1
     6     1     2   ar
     7     2    27    1
     8    27    28    1
     9    28    29    1
    10    29    30   ar
    11    29    31   ar
    12     2     3   ar
    13     3     4    1
    14     3     5   ar
    15     5     6   ar
    16     6     7   ar
    17     7     8   ar
    18     8     9   ar
    19     9    10   ar
    20    15    17    1
    21    17    18    1
    22    18    19    1
    23    19    20    1
    24    19    22    1
    25    22    23    1
    26    22    24    1
    27    22    25    1
    28    10     1   ar
    29    10     6   ar
    30     4    11    1
    31    20    21    1
    32    25    26    1
@<TRIPOS>MOLECULE
*****
 31 32 0 0 0
SMALL
GASTEIGER

@<TRIPOS>ATOM
      1 C          63.0171   85.1243   12.8166 C.ar    1  UNL1        0.1409
      2 C          62.7897   85.7207   11.4592 C.ar    1  UNL1        0.0460
      3 C          62.8955   84.8607   10.2349 C.ar    1  UNL1        0.1356
      4 O          62.6680   85.4572    8.8774 O.3     1  UNL1       -0.5056
      5 C          63.2287   83.4042   10.3678 C.ar    1  UNL1        0.0739
      6 C          63.4562   82.8078   11.7252 C.ar    1  UNL1        0.1514
      7 O          63.7967   81.4148   12.1651 O.2     1  UNL1       -0.4502
      8 C          63.9014   81.4139   13.6615 C.ar    1  UNL1        0.1797
      9 C          63.6255   82.8064   14.1463 C.ar    1  UNL1        0.0467
     10 C          63.3504   83.6678   12.9496 C.ar    1  UNL1        0.0715
     11 H          62.4599   86.3670    8.7943 H       1  UNL1        0.2922
     12 O          62.9113   85.9843   14.0410 O.3     1  UNL1       -0.4708
     13 C          64.1407   86.6198   14.6197 C.3     1  UNL1        0.2311
     14 C          63.1682   88.6061   16.6467 C.3     1  UNL1        0.0261
     15 C          63.9082   89.0773   15.4299 C.2     1  UNL1       -0.0445
     16 C          64.3945   88.0842   14.4164 C.2     1  UNL1        0.0122
     17 C          64.1619   90.5417   15.2267 C.3     1  UNL1        0.0244
     18 C          65.4274   90.9987   14.5635 C.3     1  UNL1        0.0360
     19 C          66.3195   91.9889   15.2518 C.3     1  UNL1        0.1352
     20 O          65.8013   92.7851   16.4126 O.3     1  UNL1       -0.3821
     21 H          66.5000   93.3736   16.7387 H       1  UNL1        0.2104
     22 C          67.7298   92.1829   14.7792 C.3     1  UNL1        0.1129
     23 C          68.1790   92.3729   16.1977 C.3     1  UNL1        0.0318
     24 C          67.2806   91.9929   13.3607 C.3     1  UNL1        0.0318
     25 O          69.1401   92.3769   14.3066 O.3     1  UNL1       -0.3844
     26 H          69.7180   92.5346   15.0696 H       1  UNL1        0.2103
     27 C          62.4565   87.1772   11.3263 C.3     1  UNL1        0.0384
     28 C          61.0350   87.6046   11.1098 C.3     1  UNL1        0.0466
     29 C          60.6172   88.1779    9.7882 C.2     1  UNL1        0.0507
     30 O          60.2798   89.6351    9.6757 O.co2   1  UNL1       -0.5492
     31 O          60.5369   87.2939    8.5789 O.co2   1  UNL1       -0.5492
@<TRIPOS>UNITY_ATOM_ATTR
30 1
charge -1
@<TRIPOS>BOND
     1    14    15    1
     2    15    16    2
     3    16    13    1
     4    13    12    1
     5    12     1    1
     6     1     2   ar
     7     2    27    1
     8    27    28    1
     9    28    29    1
    10    29    30   ar
    11    29    31   ar
    12     2     3   ar
    13     3     4    1
    14     3     5   ar
    15     5     6   ar
    16     6     7   ar
    17     7     8   ar
    18     8     9   ar
    19     9    10   ar
    20    15    17    1
    21    17    18    1
    22    18    19    1
    23    19    20    1
    24    19    22    1
    25    22    23    1
    26    22    24    1
    27    22    25    1
    28    10     1   ar
    29    10     6   ar
    30     4    11    1
    31    20    21    1
    32    25    26    1
@<TRIPOS>MOLECULE
*****
 31 32 0 0 0
SMALL
GASTEIGER

@<TRIPOS>ATOM
      1 C          62.4641   88.3353   11.6746 C.ar    1  UNL1        0.1409
      2 C          63.3133   89.4343   12.2413 C.ar    1  UNL1        0.0460
      3 C          63.3041   90.7928   11.6057 C.ar    1  UNL1        0.1356
      4 O          64.1533   91.8919   12.1724 O.3     1  UNL1       -0.5056
      5 C          62.4457   91.0526   10.4032 C.ar    1  UNL1        0.0739
      6 C          61.5965   89.9536    9.8365 C.ar    1  UNL1        0.1514
      7 O          60.6561   89.9127    8.6686 O.2     1  UNL1       -0.4502
      8 C          60.0841   88.5287    8.5825 C.ar    1  UNL1        0.1797
      9 C          60.6710   87.7143    9.6972 C.ar    1  UNL1        0.0467
     10 C          61.6057   88.5950   10.4722 C.ar    1  UNL1        0.0715
     11 H          64.6895   91.7297   12.9235 H       1  UNL1        0.2922
     12 O          62.4733   86.9767   12.3102 O.3     1  UNL1       -0.4708
     13 C          62.1554   85.7623   11.4891 C.3     1  UNL1        0.2311
     14 C          63.3299   84.2919    9.1529 C.3     1  UNL1        0.0261
     15 C          63.5021   83.7526   10.5420 C.2     1  UNL1       -0.0445
     16 C          62.9148   84.4878   11.7101 C.2     1  UNL1        0.0122
     17 C          64.2615   82.4780   10.7629 C.3     1  UNL1        0.0244
     18 C          64.4592   81.9543   12.1545 C.3     1  UNL1        0.0360
     19 C          63.3160   81.3137   12.8843 C.3     1  UNL1        0.1352
     20 O          62.6575   80.0898   12.3199 O.3     1  UNL1       -0.3821
     21 H          61.9425   79.8058   12.9107 H       1  UNL1        0.2104
     22 C          62.8313   81.8968   14.1785 C.3     1  UNL1        0.1129
     23 C          61.5268   81.1745   14.0154 C.3     1  UNL1        0.0318
     24 C          64.1357   82.6192   14.3416 C.3     1  UNL1        0.0318
     25 O          62.3465   82.4800   15.4727 O.3     1  UNL1       -0.3844
     26 H          61.4467   82.1653   15.6522 H       1  UNL1        0.2103
     27 C          64.1717   89.1746   13.4437 C.3     1  UNL1        0.0384
     28 C          63.6561   89.4926   14.8160 C.3     1  UNL1        0.0466
     29 C          63.9560   90.8232   15.4401 C.2     1  UNL1        0.0507
     30 O          63.3055   91.2074   16.7359 O.co2   1  UNL1       -0.5492
     31 O          64.9064   91.7696   14.7683 O.co2   1  UNL1       -0.5492
@<TRIPOS>UNITY_ATOM_ATTR
30 1
charge -1
@<TRIPOS>BOND
     1    14    15    1
     2    15    16    2
     3    16    13    1
     4    13    12    1
     5    12     1    1
     6     1     2   ar
     7     2    27    1
     8    27    28    1
     9    28    29    1
    10    29    30   ar
    11    29    31   ar
    12     2     3   ar
    13     3     4    1
    14     3     5   ar
    15     5     6   ar
    16     6     7   ar
    17     7     8   ar
    18     8     9   ar
    19     9    10   ar
    20    15    17    1
    21    17    18    1
    22    18    19    1
    23    19    20    1
    24    19    22    1
    25    22    23    1
    26    22    24    1
    27    22    25    1
    28    10     1   ar
    29    10     6   ar
    30     4    11    1
    31    20    21    1
    32    25    26    1
@<TRIPOS>MOLECULE
*****
 31 32 0 0 0
SMALL
GASTEIGER

@<TRIPOS>ATOM
      1 C          63.2618   87.1185   12.6960 C.ar    1  UNL1        0.1409
      2 C          63.6503   85.8655   13.4233 C.ar    1  UNL1        0.0460
      3 C          63.2532   84.5268   12.8758 C.ar    1  UNL1        0.1356
      4 O          63.6418   83.2737   13.6031 O.3     1  UNL1       -0.5056
      5 C          62.4675   84.4409   11.6008 C.ar    1  UNL1        0.0739
      6 C          62.0789   85.6939   10.8735 C.ar    1  UNL1        0.1514
      7 O          61.3114   85.9210    9.6049 O.2     1  UNL1       -0.4502
      8 C          61.2342   87.4002    9.3685 C.ar    1  UNL1        0.1797
      9 C          61.9540   88.0873   10.4909 C.ar    1  UNL1        0.0467
     10 C          62.4761   87.0327   11.4211 C.ar    1  UNL1        0.0715
     11 H          64.1326   83.3273   14.3995 H       1  UNL1        0.2922
     12 O          63.6589   88.4574   13.2435 O.3     1  UNL1       -0.4708
     13 C          62.9666   89.6989   12.7647 C.3     1  UNL1        0.2311
     14 C          64.9309   91.1490   14.5077 C.3     1  UNL1        0.0261
     15 C          64.7507   91.5615   13.0768 C.2     1  UNL1       -0.0445
     16 C          63.7685   90.8364   12.2052 C.2     1  UNL1        0.0122
     17 C          65.5527   92.6990   12.5174 C.3     1  UNL1        0.0244
     18 C          66.5334   92.4519   11.4097 C.3     1  UNL1        0.0360
     19 C          67.0413   93.5993   10.5877 C.3     1  UNL1        0.1352
     20 O          66.8352   95.0084   11.0587 O.3     1  UNL1       -0.3821
     21 H          67.2208   95.6239   10.4158 H       1  UNL1        0.2104
     22 C          67.7553   93.3375    9.2948 C.3     1  UNL1        0.1129
     23 C          68.1942   91.9982    9.8083 C.3     1  UNL1        0.0318
     24 C          67.3163   94.6768    8.7813 C.3     1  UNL1        0.0318
     25 O          68.4692   93.0758    8.0018 O.3     1  UNL1       -0.3844
     26 H          68.8907   92.2028    8.0362 H       1  UNL1        0.2103
     27 C          64.4360   85.9514   14.6982 C.3     1  UNL1        0.0384
     28 C          63.8023   85.5527   15.9980 C.3     1  UNL1        0.0466
     29 C          63.0444   86.5651   16.8046 C.2     1  UNL1        0.0507
     30 O          63.2045   88.0279   16.5137 O.co2   1  UNL1       -0.5492
     31 O          62.1263   86.1147   17.9020 O.co2   1  UNL1       -0.5492
@<TRIPOS>UNITY_ATOM_ATTR
30 1
charge -1
@<TRIPOS>BOND
     1    14    15    1
     2    15    16    2
     3    16    13    1
     4    13    12    1
     5    12     1    1
     6     1     2   ar
     7     2    27    1
     8    27    28    1
     9    28    29    1
    10    29    30   ar
    11    29    31   ar
    12     2     3   ar
    13     3     4    1
    14     3     5   ar
    15     5     6   ar
    16     6     7   ar
    17     7     8   ar
    18     8     9   ar
    19     9    10   ar
    20    15    17    1
    21    17    18    1
    22    18    19    1
    23    19    20    1
    24    19    22    1
    25    22    23    1
    26    22    24    1
    27    22    25    1
    28    10     1   ar
    29    10     6   ar
    30     4    11    1
    31    20    21    1
    32    25    26    1
