@<TRIPOS>MOLECULE
*****
 25 26 0 0 0
SMALL
GASTEIGER

@<TRIPOS>ATOM
      1 C          65.2730   91.7655   13.5677 C.ar    1  UNL1        0.1753
      2 C          64.1638   91.2411   12.7048 C.ar    1  UNL1        0.0403
      3 C          64.0996   91.6181   11.2544 C.ar    1  UNL1        0.0063
      4 C          65.1447   92.5196   10.6668 C.ar    1  UNL1        0.0403
      5 C          66.2539   93.0439   11.5297 C.ar    1  UNL1        0.1753
      6 C          66.3181   92.6669   12.9802 C.ar    1  UNL1        0.2059
      7 C          62.9904   91.0937   10.3915 C.2     1  UNL1        0.0035
      8 C          61.8881   90.2786   11.0002 C.2     1  UNL1        0.0420
      9 C          60.7788   89.7542   10.1374 C.2     1  UNL1        0.1957
     10 O          59.5185   90.5502    9.9699 O.2     1  UNL1       -0.2866
     11 C          60.9298   88.4337    9.4420 C.ar    1  UNL1        0.0420
     12 C          59.8715   87.9625    8.4891 C.ar    1  UNL1        0.0239
     13 C          60.0225   86.6421    7.7937 C.ar    1  UNL1        0.0990
     14 N          61.2317   85.7927    8.0513 N.ar    1  UNL1       -0.2423
     15 C          62.2900   86.2638    9.0043 C.ar    1  UNL1        0.0990
     16 C          62.1391   87.5843    9.6996 C.ar    1  UNL1        0.0239
     17 O          65.3372   91.3885   15.0181 O.3     1  UNL1       -0.4723
     18 C          63.5304   89.7949   15.9907 C.3     1  UNL1        0.0512
     19 C          64.0714   91.1802   15.7956 C.3     1  UNL1        0.2057
     20 O          67.2991   93.9454   10.9422 O.3     1  UNL1       -0.4723
     21 C          67.8146   93.6925    9.5565 C.3     1  UNL1        0.2057
     22 C          68.5863   92.4408    9.2601 C.3     1  UNL1        0.0512
     23 O          67.4274   93.1913   13.8431 O.3     1  UNL1       -0.4695
     24 C          68.3616   92.2369   14.5258 C.3     1  UNL1        0.2058
     25 C          68.6053   92.3523   16.0014 C.3     1  UNL1        0.0512
@<TRIPOS>BOND
     1    18    19    1
     2    19    17    1
     3    17     1    1
     4     1     2   ar
     5     2     3   ar
     6     3     7    1
     7     7     8    2
     8     8     9    1
     9     9    10    2
    10     9    11    1
    11    11    12   ar
    12    12    13   ar
    13    13    14   ar
    14    14    15   ar
    15    15    16   ar
    16     3     4   ar
    17     4     5   ar
    18     5    20    1
    19    20    21    1
    20    21    22    1
    21     5     6   ar
    22     6    23    1
    23    23    24    1
    24    24    25    1
    25     6     1   ar
    26    16    11   ar
@<TRIPOS>MOLECULE
*****
 25 26 0 0 0
SMALL
GASTEIGER

@<TRIPOS>ATOM
      1 C          66.3505   92.8358   11.4138 C.ar    1  UNL1        0.1753
      2 C          65.1707   92.4151   10.5886 C.ar    1  UNL1        0.0403
      3 C          64.0885   91.5758   11.2004 C.ar    1  UNL1        0.0063
      4 C          64.1861   91.1572   12.6375 C.ar    1  UNL1        0.0403
      5 C          65.3659   91.5780   13.4627 C.ar    1  UNL1        0.1753
      6 C          66.4481   92.4173   12.8508 C.ar    1  UNL1        0.2059
      7 C          62.9087   91.1550   10.3752 C.2     1  UNL1        0.0035
      8 C          61.9835   90.0872   10.8790 C.2     1  UNL1        0.0420
      9 C          60.8038   89.6665   10.0538 C.2     1  UNL1        0.1957
     10 O          59.5981   90.5542    9.9616 O.2     1  UNL1       -0.2866
     11 C          60.8295   88.3580    9.3208 C.ar    1  UNL1        0.0420
     12 C          61.9771   87.4119    9.5152 C.ar    1  UNL1        0.0239
     13 C          62.0029   86.1035    8.7822 C.ar    1  UNL1        0.0990
     14 N          60.8811   85.7411    7.8548 N.ar    1  UNL1       -0.2423
     15 C          59.7334   86.6872    7.6603 C.ar    1  UNL1        0.0990
     16 C          59.7076   87.9957    8.3933 C.ar    1  UNL1        0.0239
     17 O          67.4327   93.6752   10.8019 O.3     1  UNL1       -0.4723
     18 C          68.7084   92.4136    8.9228 C.3     1  UNL1        0.0512
     19 C          67.7800   93.5108    9.3520 C.3     1  UNL1        0.2057
     20 O          65.4636   91.1594   14.8999 O.3     1  UNL1       -0.4723
     21 C          64.2347   91.1371   15.7597 C.3     1  UNL1        0.2057
     22 C          63.5024   89.8481   15.9882 C.3     1  UNL1        0.0512
     23 O          67.6280   92.8380   13.6761 O.3     1  UNL1       -0.4695
     24 C          67.4159   93.4844   15.0130 C.3     1  UNL1        0.2058
     25 C          68.2143   93.0325   16.1997 C.3     1  UNL1        0.0512
@<TRIPOS>BOND
     1    18    19    1
     2    19    17    1
     3    17     1    1
     4     1     2   ar
     5     2     3   ar
     6     3     7    1
     7     7     8    2
     8     8     9    1
     9     9    10    2
    10     9    11    1
    11    11    12   ar
    12    12    13   ar
    13    13    14   ar
    14    14    15   ar
    15    15    16   ar
    16     3     4   ar
    17     4     5   ar
    18     5    20    1
    19    20    21    1
    20    21    22    1
    21     5     6   ar
    22     6    23    1
    23    23    24    1
    24    24    25    1
    25     6     1   ar
    26    16    11   ar
@<TRIPOS>MOLECULE
*****
 25 26 0 0 0
SMALL
GASTEIGER

@<TRIPOS>ATOM
      1 C          62.7914   86.7326   11.8573 C.ar    1  UNL1        0.1753
      2 C          63.3219   87.8949   12.6431 C.ar    1  UNL1        0.0403
      3 C          64.0318   87.6596   13.9434 C.ar    1  UNL1        0.0063
      4 C          64.2113   86.2621   14.4578 C.ar    1  UNL1        0.0403
      5 C          63.6807   85.0998   13.6720 C.ar    1  UNL1        0.1753
      6 C          62.9708   85.3350   12.3717 C.ar    1  UNL1        0.2059
      7 C          64.5623   88.8220   14.7292 C.2     1  UNL1        0.0035
      8 C          63.8266   90.1292   14.7240 C.2     1  UNL1        0.0420
      9 C          64.3571   91.2916   15.5098 C.2     1  UNL1        0.1957
     10 O          63.5278   91.8996   16.6019 O.2     1  UNL1       -0.2866
     11 C          65.7168   91.8460   15.2034 C.ar    1  UNL1        0.0420
     12 C          66.4546   92.6390   16.2411 C.ar    1  UNL1        0.0239
     13 C          67.8143   93.1934   15.9348 C.ar    1  UNL1        0.0990
     14 N          68.4362   92.9549   14.5908 N.ar    1  UNL1       -0.2423
     15 C          67.6983   92.1618   13.5531 C.ar    1  UNL1        0.0990
     16 C          66.3386   91.6074   13.8594 C.ar    1  UNL1        0.0239
     17 O          62.0815   86.9678   10.5570 O.3     1  UNL1       -0.4723
     18 C          60.7348   88.7401    9.2171 C.3     1  UNL1        0.0512
     19 C          60.9656   87.9674   10.4819 C.3     1  UNL1        0.2057
     20 O          63.8602   83.7022   14.1864 O.3     1  UNL1       -0.4723
     21 C          62.7295   83.0106   14.8886 C.3     1  UNL1        0.2057
     22 C          62.0413   81.8476   14.2373 C.3     1  UNL1        0.0512
     23 O          62.4403   84.1727   11.5859 O.3     1  UNL1       -0.4695
     24 C          63.2777   83.5518   10.5073 C.3     1  UNL1        0.2058
     25 C          64.3637   82.5813   10.8661 C.3     1  UNL1        0.0512
@<TRIPOS>BOND
     1    18    19    1
     2    19    17    1
     3    17     1    1
     4     1     2   ar
     5     2     3   ar
     6     3     7    1
     7     7     8    2
     8     8     9    1
     9     9    10    2
    10     9    11    1
    11    11    12   ar
    12    12    13   ar
    13    13    14   ar
    14    14    15   ar
    15    15    16   ar
    16     3     4   ar
    17     4     5   ar
    18     5    20    1
    19    20    21    1
    20    21    22    1
    21     5     6   ar
    22     6    23    1
    23    23    24    1
    24    24    25    1
    25     6     1   ar
    26    16    11   ar
@<TRIPOS>MOLECULE
*****
 25 26 0 0 0
SMALL
GASTEIGER

@<TRIPOS>ATOM
      1 C          63.6878   85.0997   13.6357 C.ar    1  UNL1        0.1753
      2 C          64.2086   86.2570   14.4352 C.ar    1  UNL1        0.0403
      3 C          64.0145   87.6592   13.9392 C.ar    1  UNL1        0.0063
      4 C          63.2995   87.9041   12.6435 C.ar    1  UNL1        0.0403
      5 C          62.7786   86.7468   11.8440 C.ar    1  UNL1        0.1753
      6 C          62.9728   85.3446   12.3400 C.ar    1  UNL1        0.2059
      7 C          64.5354   88.8165   14.7388 C.2     1  UNL1        0.0035
      8 C          63.8427   90.1454   14.6736 C.2     1  UNL1        0.0420
      9 C          64.3635   91.3027   15.4732 C.2     1  UNL1        0.1957
     10 O          63.5173   91.9097   16.5528 O.2     1  UNL1       -0.2866
     11 C          65.7306   91.8530   15.1932 C.ar    1  UNL1        0.0420
     12 C          66.4522   92.6404   16.2463 C.ar    1  UNL1        0.0239
     13 C          67.8192   93.1908   15.9664 C.ar    1  UNL1        0.0990
     14 N          68.4646   92.9537   14.6333 N.ar    1  UNL1       -0.2423
     15 C          67.7429   92.1662   13.5800 C.ar    1  UNL1        0.0990
     16 C          66.3759   91.6159   13.8600 C.ar    1  UNL1        0.0239
     17 O          63.8820   83.6975   14.1317 O.3     1  UNL1       -0.4723
     18 C          62.0051   81.9031   14.2183 C.3     1  UNL1        0.0512
     19 C          62.7791   83.0062   14.8772 C.3     1  UNL1        0.2057
     20 O          62.0636   86.9917   10.5483 O.3     1  UNL1       -0.4723
     21 C          61.3927   88.3100   10.2994 C.3     1  UNL1        0.2057
     22 C          60.6088   88.5265    9.0389 C.3     1  UNL1        0.0512
     23 O          62.4519   84.1873   11.5404 O.3     1  UNL1       -0.4695
     24 C          63.3189   83.5450   10.4983 C.3     1  UNL1        0.2058
     25 C          64.1359   82.3355   10.8439 C.3     1  UNL1        0.0512
@<TRIPOS>BOND
     1    18    19    1
     2    19    17    1
     3    17     1    1
     4     1     2   ar
     5     2     3   ar
     6     3     7    1
     7     7     8    2
     8     8     9    1
     9     9    10    2
    10     9    11    1
    11    11    12   ar
    12    12    13   ar
    13    13    14   ar
    14    14    15   ar
    15    15    16   ar
    16     3     4   ar
    17     4     5   ar
    18     5    20    1
    19    20    21    1
    20    21    22    1
    21     5     6   ar
    22     6    23    1
    23    23    24    1
    24    24    25    1
    25     6     1   ar
    26    16    11   ar
@<TRIPOS>MOLECULE
*****
 25 26 0 0 0
SMALL
GASTEIGER

@<TRIPOS>ATOM
      1 C          63.8927   91.0559   12.0074 C.ar    1  UNL1        0.1753
      2 C          63.5471   89.8529   12.8339 C.ar    1  UNL1        0.0403
      3 C          64.2758   89.5911   14.1186 C.ar    1  UNL1        0.0063
      4 C          65.3501   90.5323   14.5768 C.ar    1  UNL1        0.0403
      5 C          65.6957   91.7353   13.7502 C.ar    1  UNL1        0.1753
      6 C          64.9670   91.9971   12.4655 C.ar    1  UNL1        0.2059
      7 C          63.9302   88.3879   14.9452 C.2     1  UNL1        0.0035
      8 C          64.2839   87.0149   14.4556 C.2     1  UNL1        0.0420
      9 C          63.9383   85.8118   15.2821 C.2     1  UNL1        0.1957
     10 O          63.8520   85.9272   16.7752 O.2     1  UNL1       -0.2866
     11 C          63.6789   84.4933   14.6155 C.ar    1  UNL1        0.0420
     12 C          64.5492   84.0430   13.4798 C.ar    1  UNL1        0.0239
     13 C          64.2898   82.7245   12.8133 C.ar    1  UNL1        0.0990
     14 N          63.1602   81.8563   13.2824 N.ar    1  UNL1       -0.2423
     15 C          62.2899   82.3066   14.4182 C.ar    1  UNL1        0.0990
     16 C          62.5492   83.6251   15.0847 C.ar    1  UNL1        0.0239
     17 O          63.1640   91.3177   10.7227 O.3     1  UNL1       -0.4723
     18 C          60.8075   90.2484   10.4914 C.3     1  UNL1        0.0512
     19 C          62.2661   90.2658   10.1419 C.3     1  UNL1        0.2057
     20 O          66.7701   92.6766   14.2083 O.3     1  UNL1       -0.4723
     21 C          67.0719   92.8154   15.6711 C.3     1  UNL1        0.2057
     22 C          68.4370   92.4745   16.1909 C.3     1  UNL1        0.0512
     23 O          65.3127   93.2002   11.6389 O.3     1  UNL1       -0.4695
     24 C          66.1300   93.0431   10.3910 C.3     1  UNL1        0.2058
     25 C          67.4464   92.3260   10.4420 C.3     1  UNL1        0.0512
@<TRIPOS>BOND
     1    18    19    1
     2    19    17    1
     3    17     1    1
     4     1     2   ar
     5     2     3   ar
     6     3     7    1
     7     7     8    2
     8     8     9    1
     9     9    10    2
    10     9    11    1
    11    11    12   ar
    12    12    13   ar
    13    13    14   ar
    14    14    15   ar
    15    15    16   ar
    16     3     4   ar
    17     4     5   ar
    18     5    20    1
    19    20    21    1
    20    21    22    1
    21     5     6   ar
    22     6    23    1
    23    23    24    1
    24    24    25    1
    25     6     1   ar
    26    16    11   ar
@<TRIPOS>MOLECULE
*****
 25 26 0 0 0
SMALL
GASTEIGER

@<TRIPOS>ATOM
      1 C          65.6871   91.7308   13.6903 C.ar    1  UNL1        0.1753
      2 C          65.3711   90.5285   14.5296 C.ar    1  UNL1        0.0403
      3 C          64.2953   89.5756   14.0999 C.ar    1  UNL1        0.0063
      4 C          63.5355   89.8250   12.8309 C.ar    1  UNL1        0.0403
      5 C          63.8514   91.0274   11.9916 C.ar    1  UNL1        0.1753
      6 C          64.9273   91.9803   12.4213 C.ar    1  UNL1        0.2059
      7 C          63.9794   88.3732   14.9393 C.2     1  UNL1        0.0035
      8 C          64.2517   86.9964   14.4098 C.2     1  UNL1        0.0420
      9 C          63.9358   85.7940   15.2492 C.2     1  UNL1        0.1957
     10 O          63.8762   85.9168   16.7430 O.2     1  UNL1       -0.2866
     11 C          63.6794   84.4689   14.5947 C.ar    1  UNL1        0.0420
     12 C          64.5449   84.0144   13.4570 C.ar    1  UNL1        0.0239
     13 C          64.2885   82.6893   12.8026 C.ar    1  UNL1        0.0990
     14 N          63.1668   81.8186   13.2858 N.ar    1  UNL1       -0.2423
     15 C          62.3013   82.2731   14.4236 C.ar    1  UNL1        0.0990
     16 C          62.5576   83.5982   15.0780 C.ar    1  UNL1        0.0239
     17 O          66.7629   92.6837   14.1199 O.3     1  UNL1       -0.4723
     18 C          68.3922   92.3532   16.1164 C.3     1  UNL1        0.0512
     19 C          68.0562   92.1572   14.6677 C.3     1  UNL1        0.2057
     20 O          63.0916   91.2769   10.7225 O.3     1  UNL1       -0.4723
     21 C          62.2597   90.1842   10.1193 C.3     1  UNL1        0.2057
     22 C          60.7737   90.1728   10.3240 C.3     1  UNL1        0.0512
     23 O          65.2432   93.1827   11.5819 O.3     1  UNL1       -0.4695
     24 C          66.3995   93.1478   10.6270 C.3     1  UNL1        0.2058
     25 C          66.7699   94.3779    9.8525 C.3     1  UNL1        0.0512
@<TRIPOS>BOND
     1    18    19    1
     2    19    17    1
     3    17     1    1
     4     1     2   ar
     5     2     3   ar
     6     3     7    1
     7     7     8    2
     8     8     9    1
     9     9    10    2
    10     9    11    1
    11    11    12   ar
    12    12    13   ar
    13    13    14   ar
    14    14    15   ar
    15    15    16   ar
    16     3     4   ar
    17     4     5   ar
    18     5    20    1
    19    20    21    1
    20    21    22    1
    21     5     6   ar
    22     6    23    1
    23    23    24    1
    24    24    25    1
    25     6     1   ar
    26    16    11   ar
@<TRIPOS>MOLECULE
*****
 25 26 0 0 0
SMALL
GASTEIGER

@<TRIPOS>ATOM
      1 C          62.9840   88.4425   12.2017 C.ar    1  UNL1        0.1753
      2 C          63.8056   89.6974   12.1901 C.ar    1  UNL1        0.0403
      3 C          63.3799   90.8648   11.3499 C.ar    1  UNL1        0.0063
      4 C          62.1326   90.7774   10.5213 C.ar    1  UNL1        0.0403
      5 C          61.3110   89.5225   10.5330 C.ar    1  UNL1        0.1753
      6 C          61.7367   88.3551   11.3732 C.ar    1  UNL1        0.2059
      7 C          64.2016   92.1197   11.3383 C.2     1  UNL1        0.0035
      8 C          65.2278   92.3542   12.4069 C.2     1  UNL1        0.0420
      9 C          66.0495   93.6090   12.3953 C.2     1  UNL1        0.1957
     10 O          66.3819   94.2998   13.6847 O.2     1  UNL1       -0.2866
     11 C          66.5389   94.1731   11.0944 C.ar    1  UNL1        0.0420
     12 C          67.3620   93.3244   10.1713 C.ar    1  UNL1        0.0239
     13 C          67.8514   93.8885    8.8704 C.ar    1  UNL1        0.0990
     14 N          67.5177   95.3012    8.4927 N.ar    1  UNL1       -0.2423
     15 C          66.6945   96.1500    9.4158 C.ar    1  UNL1        0.0990
     16 C          66.2051   95.5859   10.7167 C.ar    1  UNL1        0.0239
     17 O          63.4096   87.2751   13.0419 O.3     1  UNL1       -0.4723
     18 C          64.5648   86.3409   15.1733 C.3     1  UNL1        0.0512
     19 C          64.1918   87.5031   14.3014 C.3     1  UNL1        0.2057
     20 O          60.0636   89.4350    9.7044 O.3     1  UNL1       -0.4723
     21 C          60.1415   88.9793    8.2775 C.3     1  UNL1        0.2057
     22 C          59.2356   87.8885    7.7879 C.3     1  UNL1        0.0512
     23 O          60.9150   87.1002   11.3848 O.3     1  UNL1       -0.4695
     24 C          61.2175   85.9966   10.4150 C.3     1  UNL1        0.2058
     25 C          62.4062   85.1088   10.6360 C.3     1  UNL1        0.0512
@<TRIPOS>BOND
     1    18    19    1
     2    19    17    1
     3    17     1    1
     4     1     2   ar
     5     2     3   ar
     6     3     7    1
     7     7     8    2
     8     8     9    1
     9     9    10    2
    10     9    11    1
    11    11    12   ar
    12    12    13   ar
    13    13    14   ar
    14    14    15   ar
    15    15    16   ar
    16     3     4   ar
    17     4     5   ar
    18     5    20    1
    19    20    21    1
    20    21    22    1
    21     5     6   ar
    22     6    23    1
    23    23    24    1
    24    24    25    1
    25     6     1   ar
    26    16    11   ar
@<TRIPOS>MOLECULE
*****
 25 26 0 0 0
SMALL
GASTEIGER

@<TRIPOS>ATOM
      1 C          63.9965   87.0508   14.3247 C.ar    1  UNL1        0.1753
      2 C          64.3142   88.5167   14.3353 C.ar    1  UNL1        0.0403
      3 C          63.8847   89.3855   13.1905 C.ar    1  UNL1        0.0063
      4 C          63.1374   88.7885   12.0350 C.ar    1  UNL1        0.0403
      5 C          62.8197   87.3226   12.0245 C.ar    1  UNL1        0.1753
      6 C          63.2493   86.4538   13.1693 C.ar    1  UNL1        0.2059
      7 C          64.2024   90.8515   13.2011 C.2     1  UNL1        0.0035
      8 C          65.6293   91.3101   13.1408 C.2     1  UNL1        0.0420
      9 C          65.9471   92.7760   13.1514 C.2     1  UNL1        0.1957
     10 O          65.8090   93.5642   14.4202 O.2     1  UNL1       -0.2866
     11 C          66.4030   93.4537   11.8933 C.ar    1  UNL1        0.0420
     12 C          66.2328   94.9356   11.7358 C.ar    1  UNL1        0.0239
     13 C          66.6887   95.6134   10.4777 C.ar    1  UNL1        0.0990
     14 N          67.3148   94.8092    9.3771 N.ar    1  UNL1       -0.2423
     15 C          67.4850   93.3272    9.5346 C.ar    1  UNL1        0.0990
     16 C          67.0291   92.6495   10.7927 C.ar    1  UNL1        0.0239
     17 O          64.4261   86.1820   15.4695 O.3     1  UNL1       -0.4723
     18 C          62.8573   86.9484   17.3935 C.3     1  UNL1        0.0512
     19 C          63.4562   85.8509   16.5648 C.3     1  UNL1        0.2057
     20 O          62.0724   86.7254   10.8690 O.3     1  UNL1       -0.4723
     21 C          61.7681   87.5604    9.6606 C.3     1  UNL1        0.2057
     22 C          60.3775   87.5879    9.0989 C.3     1  UNL1        0.0512
     23 O          62.9315   84.9878   13.1586 O.3     1  UNL1       -0.4695
     24 C          63.9792   83.9963   12.7472 C.3     1  UNL1        0.2058
     25 C          63.9554   83.4091   11.3672 C.3     1  UNL1        0.0512
@<TRIPOS>BOND
     1    18    19    1
     2    19    17    1
     3    17     1    1
     4     1     2   ar
     5     2     3   ar
     6     3     7    1
     7     7     8    2
     8     8     9    1
     9     9    10    2
    10     9    11    1
    11    11    12   ar
    12    12    13   ar
    13    13    14   ar
    14    14    15   ar
    15    15    16   ar
    16     3     4   ar
    17     4     5   ar
    18     5    20    1
    19    20    21    1
    20    21    22    1
    21     5     6   ar
    22     6    23    1
    23    23    24    1
    24    24    25    1
    25     6     1   ar
    26    16    11   ar
@<TRIPOS>MOLECULE
*****
 25 26 0 0 0
SMALL
GASTEIGER

@<TRIPOS>ATOM
      1 C          62.5146   87.8122   11.7429 C.ar    1  UNL1        0.1753
      2 C          62.9060   89.2597   11.7815 C.ar    1  UNL1        0.0403
      3 C          63.7975   89.7668   12.8761 C.ar    1  UNL1        0.0063
      4 C          64.2977   88.8263   13.9321 C.ar    1  UNL1        0.0403
      5 C          63.9063   87.3788   13.8936 C.ar    1  UNL1        0.1753
      6 C          63.0148   86.8717   12.7990 C.ar    1  UNL1        0.2059
      7 C          64.1888   91.2144   12.9146 C.2     1  UNL1        0.0035
      8 C          65.6372   91.5981   12.9840 C.2     1  UNL1        0.0420
      9 C          66.0286   93.0456   13.0225 C.2     1  UNL1        0.1957
     10 O          66.0400   93.7850   14.3276 O.2     1  UNL1       -0.2866
     11 C          66.4085   93.7538   11.7559 C.ar    1  UNL1        0.0420
     12 C          66.9644   92.9765   10.5998 C.ar    1  UNL1        0.0239
     13 C          67.3443   93.6847    9.3333 C.ar    1  UNL1        0.0990
     14 N          67.1682   95.1702    9.2228 N.ar    1  UNL1       -0.2423
     15 C          66.6123   95.9476   10.3790 C.ar    1  UNL1        0.0990
     16 C          66.2324   95.2394   11.6456 C.ar    1  UNL1        0.0239
     17 O          61.6231   87.3052   10.6483 O.3     1  UNL1       -0.4723
     18 C          62.5909   85.7950    8.7688 C.3     1  UNL1        0.0512
     19 C          62.1601   87.1464    9.2568 C.3     1  UNL1        0.2057
     20 O          64.4065   86.4382   14.9497 O.3     1  UNL1       -0.4723
     21 C          63.5632   86.1477   16.1556 C.3     1  UNL1        0.2057
     22 C          62.6963   84.9239   16.1874 C.3     1  UNL1        0.0512
     23 O          62.6235   85.4241   12.7605 O.3     1  UNL1       -0.4695
     24 C          63.5388   84.4163   12.1308 C.3     1  UNL1        0.2058
     25 C          64.3345   83.4831   12.9945 C.3     1  UNL1        0.0512
@<TRIPOS>BOND
     1    18    19    1
     2    19    17    1
     3    17     1    1
     4     1     2   ar
     5     2     3   ar
     6     3     7    1
     7     7     8    2
     8     8     9    1
     9     9    10    2
    10     9    11    1
    11    11    12   ar
    12    12    13   ar
    13    13    14   ar
    14    14    15   ar
    15    15    16   ar
    16     3     4   ar
    17     4     5   ar
    18     5    20    1
    19    20    21    1
    20    21    22    1
    21     5     6   ar
    22     6    23    1
    23    23    24    1
    24    24    25    1
    25     6     1   ar
    26    16    11   ar
