@<TRIPOS>MOLECULE
*****
 35 39 0 0 0
SMALL
GASTEIGER

@<TRIPOS>ATOM
      1 C          59.0735   94.7624   -1.7994 C.ar    1  UNL1        0.1633
      2 N          59.8202   95.0030   -3.0778 N.ar    1  UNL1       -0.2297
      3 C          61.3013   94.7728   -3.1360 C.ar    1  UNL1        0.0756
      4 C          62.0357   94.3021   -1.9157 C.ar    1  UNL1        0.0258
      5 C          61.2889   94.0616   -0.6372 C.ar    1  UNL1        0.1306
      6 N          59.8078   94.2917   -0.5791 N.ar    1  UNL1       -0.2122
      7 C          63.5167   94.0720   -1.9739 C.3     1  UNL1        0.0478
      8 C          64.2635   94.3125   -3.2523 C.3     1  UNL1        0.0774
      9 N          63.5291   94.7832   -4.4726 N.3     1  UNL1       -0.2643
     10 C          62.0480   95.0134   -4.4145 C.3     1  UNL1        0.1186
     11 N          62.0232   93.5909    0.5831 N.pl3   1  UNL1       -0.2900
     12 C          61.9185   92.1584    1.0155 C.3     1  UNL1        0.1242
     13 C          62.6529   91.6877    2.2358 C.3     1  UNL1        0.1636
     14 O          63.4920   92.6495    3.0237 O.3     1  UNL1       -0.3502
     15 C          63.5967   94.0821    2.5913 C.3     1  UNL1        0.1618
     16 C          62.8624   94.5528    1.3710 C.3     1  UNL1        0.1038
     17 C          62.9671   95.9852    0.9386 C.3     1  UNL1        0.0241
     18 C          54.6302   95.4527   -1.6248 C.ar    1  UNL1        0.0516
     19 C          55.1652   94.0974   -1.9812 C.ar    1  UNL1        0.0148
     20 C          56.6462   93.8674   -2.0393 C.ar    1  UNL1        0.0043
     21 C          57.5923   94.9925   -1.7412 C.ar    1  UNL1        0.0359
     22 C          57.0573   96.3478   -1.3848 C.ar    1  UNL1        0.0043
     23 C          55.5762   96.5779   -1.3267 C.ar    1  UNL1        0.0148
     24 N          50.9320   96.3740   -2.7315 N.am    1  UNL1       -0.2887
     25 C          52.4130   96.1438   -2.7897 C.2     1  UNL1        0.3045
     26 O          53.1582   96.3747   -4.0709 O.2     1  UNL1       -0.2525
     27 N          53.1490   95.6828   -1.5666 N.am    1  UNL1       -0.2683
     28 H          50.4429   96.2225   -1.8906 H       1  UNL1        0.1510
     29 H          52.6600   95.5313   -0.7257 H       1  UNL1        0.1564
     30 C          50.3373   96.0811   -5.2436 C.3     1  UNL1        0.0230
     31 C          50.1960   96.8350   -3.9546 C.3     1  UNL1        0.0910
     32 C          64.2759   95.0238   -5.7512 C.3     1  UNL1        0.1175
     33 C          65.3562   95.9688   -6.1868 C.3     1  UNL1        0.1606
     34 O          65.3319   95.3639   -7.5592 O.3     1  UNL1       -0.3507
     35 C          64.2516   94.4189   -7.1236 C.3     1  UNL1        0.1606
@<TRIPOS>BOND
     1    30    31    1
     2    31    24    1
     3    24    25   am
     4    25    26    2
     5    25    27   am
     6    27    18    1
     7    18    19   ar
     8    19    20   ar
     9    20    21   ar
    10    21     1    1
    11     1     2   ar
    12     2     3   ar
    13     3     4   ar
    14     4     5   ar
    15     5    11    1
    16    11    12    1
    17    12    13    1
    18    13    14    1
    19    14    15    1
    20    15    16    1
    21    16    17    1
    22     5     6   ar
    23     4     7    1
    24     7     8    1
    25     8     9    1
    26     9    32    1
    27    32    33    1
    28    33    34    1
    29    34    35    1
    30     9    10    1
    31    21    22   ar
    32    22    23   ar
    33    23    18   ar
    34     6     1   ar
    35    35    32    1
    36    10     3    1
    37    16    11    1
    38    24    28    1
    39    27    29    1
@<TRIPOS>MOLECULE
*****
 35 39 0 0 0
SMALL
GASTEIGER

@<TRIPOS>ATOM
      1 C          63.5571   88.5252   12.6545 C.ar    1  UNL1        0.1633
      2 N          63.7871   87.1895   13.2971 N.ar    1  UNL1       -0.2297
      3 C          63.1498   85.9601   12.7205 C.ar    1  UNL1        0.0756
      4 C          62.2825   86.0665   11.5013 C.ar    1  UNL1        0.0258
      5 C          62.0525   87.4023   10.8587 C.ar    1  UNL1        0.1306
      6 N          62.6898   88.6316   11.4353 N.ar    1  UNL1       -0.2122
      7 C          61.6452   84.8371   10.9246 C.3     1  UNL1        0.0478
      8 C          61.8752   83.5014   11.5672 C.3     1  UNL1        0.0774
      9 N          62.7425   83.3950   12.7864 N.3     1  UNL1       -0.2643
     10 C          63.3798   84.6244   13.3630 C.3     1  UNL1        0.1186
     11 N          61.1852   87.5087    9.6395 N.pl3   1  UNL1       -0.2900
     12 C          61.0104   86.3229    8.7376 C.3     1  UNL1        0.1242
     13 C          60.1431   86.4293    7.5184 C.3     1  UNL1        0.1636
     14 O          59.4506   87.7214    7.2011 O.3     1  UNL1       -0.3502
     15 C          59.6254   88.9073    8.1029 C.3     1  UNL1        0.1618
     16 C          60.4927   88.8009    9.3221 C.3     1  UNL1        0.1038
     17 C          60.6676   89.9867   10.2240 C.3     1  UNL1        0.0241
     18 C          65.4691   92.2133   14.3843 C.ar    1  UNL1        0.0516
     19 C          65.1493   92.1508   12.9201 C.ar    1  UNL1        0.0148
     20 C          64.5120   90.9214   12.3436 C.ar    1  UNL1        0.0043
     21 C          64.1945   89.7546   13.2312 C.ar    1  UNL1        0.0359
     22 C          64.5143   89.8172   14.6953 C.ar    1  UNL1        0.0043
     23 C          65.1516   91.0466   15.2719 C.ar    1  UNL1        0.0148
     24 N          68.1602   94.6225   16.0287 N.am    1  UNL1       -0.2887
     25 C          67.5228   93.3932   15.4521 C.2     1  UNL1        0.3045
     26 O          68.3019   92.1142   15.3666 O.2     1  UNL1       -0.2525
     27 N          66.1064   93.4428   14.9609 N.am    1  UNL1       -0.2683
     28 H          67.6488   95.4619   16.0848 H       1  UNL1        0.1510
     29 H          65.5950   94.2822   15.0170 H       1  UNL1        0.1564
     30 C          70.7101   94.5399   15.5380 C.3     1  UNL1        0.0230
     31 C          69.5766   94.5729   16.5198 C.3     1  UNL1        0.0910
     32 C          62.9725   82.0592   13.4290 C.3     1  UNL1        0.1175
     33 C          64.1552   81.1519   13.5955 C.3     1  UNL1        0.1606
     34 O          63.2976   80.1702   14.3377 O.3     1  UNL1       -0.3507
     35 C          62.1149   81.0776   14.1711 C.3     1  UNL1        0.1606
@<TRIPOS>BOND
     1    30    31    1
     2    31    24    1
     3    24    25   am
     4    25    26    2
     5    25    27   am
     6    27    18    1
     7    18    19   ar
     8    19    20   ar
     9    20    21   ar
    10    21     1    1
    11     1     2   ar
    12     2     3   ar
    13     3     4   ar
    14     4     5   ar
    15     5    11    1
    16    11    12    1
    17    12    13    1
    18    13    14    1
    19    14    15    1
    20    15    16    1
    21    16    17    1
    22     5     6   ar
    23     4     7    1
    24     7     8    1
    25     8     9    1
    26     9    32    1
    27    32    33    1
    28    33    34    1
    29    34    35    1
    30     9    10    1
    31    21    22   ar
    32    22    23   ar
    33    23    18   ar
    34     6     1   ar
    35    35    32    1
    36    10     3    1
    37    16    11    1
    38    24    28    1
    39    27    29    1
@<TRIPOS>MOLECULE
*****
 35 39 0 0 0
SMALL
GASTEIGER

@<TRIPOS>ATOM
      1 C          60.0784   92.9514    2.6404 C.ar    1  UNL1        0.1633
      2 N          58.9972   93.3134    1.6658 N.ar    1  UNL1       -0.2297
      3 C          59.2819   94.2802    0.5548 C.ar    1  UNL1        0.0756
      4 C          60.6478   94.8849    0.4184 C.ar    1  UNL1        0.0258
      5 C          61.7290   94.5229    1.3931 C.ar    1  UNL1        0.1306
      6 N          61.4443   93.5562    2.5041 N.ar    1  UNL1       -0.2122
      7 C          60.9326   95.8517   -0.6926 C.3     1  UNL1        0.0478
      8 C          59.8514   96.2137   -1.6672 C.3     1  UNL1        0.0774
      9 N          58.4855   95.6089   -1.5308 N.3     1  UNL1       -0.2643
     10 C          58.2007   94.6422   -0.4199 C.3     1  UNL1        0.1186
     11 N          63.0950   95.1276    1.2568 N.pl3   1  UNL1       -0.2900
     12 C          63.5113   96.2510    2.1593 C.3     1  UNL1        0.1242
     13 C          64.8772   96.8558    2.0229 C.3     1  UNL1        0.1636
     14 O          65.8268   96.3371    0.9841 O.3     1  UNL1       -0.3502
     15 C          65.4105   95.2136    0.0815 C.3     1  UNL1        0.1618
     16 C          64.0445   94.6089    0.2179 C.3     1  UNL1        0.1038
     17 C          63.6282   93.4855   -0.6846 C.3     1  UNL1        0.0241
     18 C          59.2245   90.0512    5.9735 C.ar    1  UNL1        0.0516
     19 C          60.6179   90.1854    5.4347 C.ar    1  UNL1        0.0148
     20 C          60.9025   91.1521    4.3238 C.ar    1  UNL1        0.0043
     21 C          59.7937   91.9847    3.7515 C.ar    1  UNL1        0.0359
     22 C          58.4003   91.8504    4.2902 C.ar    1  UNL1        0.0043
     23 C          58.1157   90.8837    5.4012 C.ar    1  UNL1        0.0148
     24 N          59.5204   88.1073    9.4208 N.am    1  UNL1       -0.2887
     25 C          59.8050   89.0740    8.3098 C.2     1  UNL1        0.3045
     26 O          60.9549   90.0305    8.4240 O.2     1  UNL1       -0.2525
     27 N          58.9398   89.0844    7.0845 N.am    1  UNL1       -0.2683
     28 H          58.7656   87.4796    9.3458 H       1  UNL1        0.1510
     29 H          58.1850   88.4567    7.0096 H       1  UNL1        0.1564
     30 C          61.4978   87.0983   10.7704 C.3     1  UNL1        0.0230
     31 C          60.3856   88.0970   10.6461 C.3     1  UNL1        0.0910
     32 C          57.4043   95.9710   -2.5056 C.3     1  UNL1        0.1175
     33 C          57.1073   95.6291   -3.9356 C.3     1  UNL1        0.1606
     34 O          55.8752   96.4830   -3.8839 O.3     1  UNL1       -0.3507
     35 C          56.1721   96.8249   -2.4539 C.3     1  UNL1        0.1606
@<TRIPOS>BOND
     1    30    31    1
     2    31    24    1
     3    24    25   am
     4    25    26    2
     5    25    27   am
     6    27    18    1
     7    18    19   ar
     8    19    20   ar
     9    20    21   ar
    10    21     1    1
    11     1     2   ar
    12     2     3   ar
    13     3     4   ar
    14     4     5   ar
    15     5    11    1
    16    11    12    1
    17    12    13    1
    18    13    14    1
    19    14    15    1
    20    15    16    1
    21    16    17    1
    22     5     6   ar
    23     4     7    1
    24     7     8    1
    25     8     9    1
    26     9    32    1
    27    32    33    1
    28    33    34    1
    29    34    35    1
    30     9    10    1
    31    21    22   ar
    32    22    23   ar
    33    23    18   ar
    34     6     1   ar
    35    35    32    1
    36    10     3    1
    37    16    11    1
    38    24    28    1
    39    27    29    1
@<TRIPOS>MOLECULE
*****
 35 39 0 0 0
SMALL
GASTEIGER

@<TRIPOS>ATOM
      1 C          63.9597   89.2084   13.1481 C.ar    1  UNL1        0.1633
      2 N          63.0546   89.4762   11.9824 N.ar    1  UNL1       -0.2297
      3 C          62.3096   88.3460   11.3361 C.ar    1  UNL1        0.0756
      4 C          62.4698   86.9480   11.8557 C.ar    1  UNL1        0.0258
      5 C          63.3749   86.6802   13.0215 C.ar    1  UNL1        0.1306
      6 N          64.1198   87.8104   13.6677 N.ar    1  UNL1       -0.2122
      7 C          61.7249   85.8177   11.2094 C.3     1  UNL1        0.0478
      8 C          60.8198   86.0855   10.0437 C.3     1  UNL1        0.0774
      9 N          60.6597   87.4835    9.5241 N.3     1  UNL1       -0.2643
     10 C          61.4046   88.6137   10.1703 C.3     1  UNL1        0.1186
     11 N          63.5350   85.2822   13.5411 N.pl3   1  UNL1       -0.2900
     12 C          63.6951   84.1396   12.5826 C.3     1  UNL1        0.1242
     13 C          63.8552   82.7416   13.1022 C.3     1  UNL1        0.1636
     14 O          63.8553   82.4862   14.5802 O.3     1  UNL1       -0.3502
     15 C          63.6952   83.6289   15.5388 C.3     1  UNL1        0.1618
     16 C          63.5351   85.0269   15.0193 C.3     1  UNL1        0.1038
     17 C          63.3751   86.1695   15.9777 C.3     1  UNL1        0.0241
     18 C          66.1946   92.5991   15.0868 C.ar    1  UNL1        0.0516
     19 C          66.3138   92.3700   13.6092 C.ar    1  UNL1        0.0148
     20 C          65.5689   91.2398   12.9630 C.ar    1  UNL1        0.0043
     21 C          64.7047   90.3387   13.7944 C.ar    1  UNL1        0.0359
     22 C          64.5855   90.5678   15.2720 C.ar    1  UNL1        0.0043
     23 C          65.3304   91.6980   15.9182 C.ar    1  UNL1        0.0148
     24 N          69.1817   94.9126   16.3015 N.am    1  UNL1       -0.2887
     25 C          68.4367   93.7824   15.6553 C.2     1  UNL1        0.3045
     26 O          69.1887   92.7053   14.9312 O.2     1  UNL1       -0.2525
     27 N          66.9396   93.7293   15.7331 N.am    1  UNL1       -0.2683
     28 H          68.6881   95.6195   16.7767 H       1  UNL1        0.1510
     29 H          66.4460   94.4363   16.2083 H       1  UNL1        0.1564
     30 C          71.3458   95.7902   15.1630 C.3     1  UNL1        0.0230
     31 C          70.6787   94.9657   16.2237 C.3     1  UNL1        0.0910
     32 C          59.7545   87.7513    8.3582 C.3     1  UNL1        0.1175
     33 C          58.8208   86.9215    7.5278 C.3     1  UNL1        0.1606
     34 O          58.4745   88.1300    6.7095 O.3     1  UNL1       -0.3507
     35 C          59.4083   88.9598    7.5399 C.3     1  UNL1        0.1606
@<TRIPOS>BOND
     1    30    31    1
     2    31    24    1
     3    24    25   am
     4    25    26    2
     5    25    27   am
     6    27    18    1
     7    18    19   ar
     8    19    20   ar
     9    20    21   ar
    10    21     1    1
    11     1     2   ar
    12     2     3   ar
    13     3     4   ar
    14     4     5   ar
    15     5    11    1
    16    11    12    1
    17    12    13    1
    18    13    14    1
    19    14    15    1
    20    15    16    1
    21    16    17    1
    22     5     6   ar
    23     4     7    1
    24     7     8    1
    25     8     9    1
    26     9    32    1
    27    32    33    1
    28    33    34    1
    29    34    35    1
    30     9    10    1
    31    21    22   ar
    32    22    23   ar
    33    23    18   ar
    34     6     1   ar
    35    35    32    1
    36    10     3    1
    37    16    11    1
    38    24    28    1
    39    27    29    1
@<TRIPOS>MOLECULE
*****
 35 39 0 0 0
SMALL
GASTEIGER

@<TRIPOS>ATOM
      1 C          63.0079   89.3058   11.8749 C.ar    1  UNL1        0.1633
      2 N          62.1416   89.9510   10.8342 N.ar    1  UNL1       -0.2297
      3 C          61.4143   89.1032    9.8329 C.ar    1  UNL1        0.0756
      4 C          61.5535   87.6102    9.8724 C.ar    1  UNL1        0.0258
      5 C          62.4198   86.9650   10.9132 C.ar    1  UNL1        0.1306
      6 N          63.1470   87.8128   11.9144 N.ar    1  UNL1       -0.2122
      7 C          60.8263   86.7624    8.8712 C.3     1  UNL1        0.0478
      8 C          59.9600   87.4077    7.8305 C.3     1  UNL1        0.0774
      9 N          59.8208   88.9007    7.7910 N.3     1  UNL1       -0.2643
     10 C          60.5480   89.7485    8.7922 C.3     1  UNL1        0.1186
     11 N          62.5590   85.4720   10.9527 N.pl3   1  UNL1       -0.2900
     12 C          62.2051   84.7185   12.2005 C.3     1  UNL1        0.1242
     13 C          62.3443   83.2255   12.2400 C.3     1  UNL1        0.1636
     14 O          62.8372   82.4859   11.0318 O.3     1  UNL1       -0.3502
     15 C          63.1911   83.2394    9.7839 C.3     1  UNL1        0.1618
     16 C          63.0520   84.7324    9.7443 C.3     1  UNL1        0.1038
     17 C          63.4058   85.4859    8.4965 C.3     1  UNL1        0.0241
     18 C          65.1896   91.8491   14.8785 C.ar    1  UNL1        0.0516
     19 C          65.1303   92.2713   13.4404 C.ar    1  UNL1        0.0148
     20 C          64.4031   91.4236   12.4392 C.ar    1  UNL1        0.0043
     21 C          63.7351   90.1535   12.8761 C.ar    1  UNL1        0.0359
     22 C          63.7944   89.7313   14.3142 C.ar    1  UNL1        0.0043
     23 C          64.5216   90.5791   15.3154 C.ar    1  UNL1        0.0148
     24 N          67.9733   94.1450   16.5307 N.am    1  UNL1       -0.2887
     25 C          67.2460   93.2973   15.5295 C.2     1  UNL1        0.3045
     26 O          67.8480   93.0499   14.1780 O.2     1  UNL1       -0.2525
     27 N          65.9168   92.6969   15.8798 N.am    1  UNL1       -0.2683
     28 H          67.5782   94.3074   17.4177 H       1  UNL1        0.1510
     29 H          65.5217   92.8592   16.7668 H       1  UNL1        0.1564
     30 C          70.4476   93.8577   15.7926 C.3     1  UNL1        0.0230
     31 C          69.3025   94.7454   16.1805 C.3     1  UNL1        0.0910
     32 C          58.9545   89.5459    6.7502 C.3     1  UNL1        0.1175
     33 C          59.1967   90.4640    5.5889 C.3     1  UNL1        0.1606
     34 O          57.7292   90.4583    5.2784 O.3     1  UNL1       -0.3507
     35 C          57.4870   89.5403    6.4396 C.3     1  UNL1        0.1606
@<TRIPOS>BOND
     1    30    31    1
     2    31    24    1
     3    24    25   am
     4    25    26    2
     5    25    27   am
     6    27    18    1
     7    18    19   ar
     8    19    20   ar
     9    20    21   ar
    10    21     1    1
    11     1     2   ar
    12     2     3   ar
    13     3     4   ar
    14     4     5   ar
    15     5    11    1
    16    11    12    1
    17    12    13    1
    18    13    14    1
    19    14    15    1
    20    15    16    1
    21    16    17    1
    22     5     6   ar
    23     4     7    1
    24     7     8    1
    25     8     9    1
    26     9    32    1
    27    32    33    1
    28    33    34    1
    29    34    35    1
    30     9    10    1
    31    21    22   ar
    32    22    23   ar
    33    23    18   ar
    34     6     1   ar
    35    35    32    1
    36    10     3    1
    37    16    11    1
    38    24    28    1
    39    27    29    1
@<TRIPOS>MOLECULE
*****
 35 39 0 0 0
SMALL
GASTEIGER

@<TRIPOS>ATOM
      1 C          61.4082   87.5291   10.0052 C.ar    1  UNL1        0.1633
      2 N          61.3735   86.0327   10.1033 N.ar    1  UNL1       -0.2297
      3 C          62.0883   85.3379   11.2242 C.ar    1  UNL1        0.0756
      4 C          62.8377   86.1394   12.2469 C.ar    1  UNL1        0.0258
      5 C          62.8723   87.6358   12.1487 C.ar    1  UNL1        0.1306
      6 N          62.1576   88.3306   11.0279 N.ar    1  UNL1       -0.2122
      7 C          63.5524   85.4446   13.3678 C.3     1  UNL1        0.0478
      8 C          63.5177   83.9482   13.4659 C.3     1  UNL1        0.0774
      9 N          62.7683   83.1467   12.4432 N.3     1  UNL1       -0.2643
     10 C          62.0536   83.8415   11.3224 C.3     1  UNL1        0.1186
     11 N          63.6217   88.4374   13.1714 N.pl3   1  UNL1       -0.2900
     12 C          64.1182   87.7784   14.4241 C.3     1  UNL1        0.1242
     13 C          64.8676   88.5800   15.4468 C.3     1  UNL1        0.1636
     14 O          65.1205   90.0405   15.2168 O.3     1  UNL1       -0.3502
     15 C          64.6240   90.6995   13.9641 C.3     1  UNL1        0.1618
     16 C          63.8746   89.8980   12.9414 C.3     1  UNL1        0.1038
     17 C          63.3780   90.5569   11.6888 C.3     1  UNL1        0.0241
     18 C          59.2640   89.6138    6.6427 C.ar    1  UNL1        0.0516
     19 C          59.9559   90.4175    7.7034 C.ar    1  UNL1        0.0148
     20 C          60.6706   89.7226    8.8242 C.ar    1  UNL1        0.0043
     21 C          60.6934   88.2240    8.8843 C.ar    1  UNL1        0.0359
     22 C          60.0015   87.4202    7.8236 C.ar    1  UNL1        0.0043
     23 C          59.2868   88.1151    6.7028 C.ar    1  UNL1        0.0148
     24 N          58.5786   91.9574    3.5142 N.am    1  UNL1       -0.2887
     25 C          59.2933   91.2626    4.6350 C.2     1  UNL1        0.3045
     26 O          60.7522   91.5216    4.8691 O.2     1  UNL1       -0.2525
     27 N          58.5492   90.3086    5.5218 N.am    1  UNL1       -0.2683
     28 H          57.6212   91.7874    3.3605 H       1  UNL1        0.1510
     29 H          57.5918   90.1386    5.3681 H       1  UNL1        0.1564
     30 C          59.2653   92.7502    1.1372 C.3     1  UNL1        0.0230
     31 C          59.3227   92.9114    2.6274 C.3     1  UNL1        0.0910
     32 C          62.7337   81.6503   12.5414 C.3     1  UNL1        0.1175
     33 C          62.8716   80.5197   11.5652 C.3     1  UNL1        0.1606
     34 O          62.6847   79.5341   12.6804 O.3     1  UNL1       -0.3507
     35 C          62.5469   80.6646   13.6566 C.3     1  UNL1        0.1606
@<TRIPOS>BOND
     1    30    31    1
     2    31    24    1
     3    24    25   am
     4    25    26    2
     5    25    27   am
     6    27    18    1
     7    18    19   ar
     8    19    20   ar
     9    20    21   ar
    10    21     1    1
    11     1     2   ar
    12     2     3   ar
    13     3     4   ar
    14     4     5   ar
    15     5    11    1
    16    11    12    1
    17    12    13    1
    18    13    14    1
    19    14    15    1
    20    15    16    1
    21    16    17    1
    22     5     6   ar
    23     4     7    1
    24     7     8    1
    25     8     9    1
    26     9    32    1
    27    32    33    1
    28    33    34    1
    29    34    35    1
    30     9    10    1
    31    21    22   ar
    32    22    23   ar
    33    23    18   ar
    34     6     1   ar
    35    35    32    1
    36    10     3    1
    37    16    11    1
    38    24    28    1
    39    27    29    1
@<TRIPOS>MOLECULE
*****
 35 39 0 0 0
SMALL
GASTEIGER

@<TRIPOS>ATOM
      1 C          61.8564   88.1116   10.9736 C.ar    1  UNL1        0.1633
      2 N          62.0333   86.6431   11.2232 N.ar    1  UNL1       -0.2297
      3 C          62.8432   86.1738   12.3953 C.ar    1  UNL1        0.0756
      4 C          63.4761   87.1730   13.3179 C.ar    1  UNL1        0.0258
      5 C          63.2991   88.6415   13.0683 C.ar    1  UNL1        0.1306
      6 N          62.4892   89.1107   11.8962 N.ar    1  UNL1       -0.2122
      7 C          64.2860   86.7037   14.4900 C.3     1  UNL1        0.0478
      8 C          64.4629   85.2353   14.7396 C.3     1  UNL1        0.0774
      9 N          63.8301   84.2361   13.8170 N.3     1  UNL1       -0.2643
     10 C          63.0202   84.7054   12.6449 C.3     1  UNL1        0.1186
     11 N          63.9319   89.6407   13.9909 N.pl3   1  UNL1       -0.2900
     12 C          65.1427   90.4079   13.5488 C.3     1  UNL1        0.1242
     13 C          65.7755   91.4071   14.4714 C.3     1  UNL1        0.1636
     14 O          65.1977   91.6390   15.8360 O.3     1  UNL1       -0.3502
     15 C          63.9869   90.8718   16.2781 C.3     1  UNL1        0.1618
     16 C          63.3540   89.8726   15.3556 C.3     1  UNL1        0.1038
     17 C          62.1433   89.1054   15.7976 C.3     1  UNL1        0.0241
     18 C          59.4268   89.5194    7.4573 C.ar    1  UNL1        0.0516
     19 C          59.7905   88.0699    7.5853 C.ar    1  UNL1        0.0148
     20 C          60.6004   87.6006    8.7574 C.ar    1  UNL1        0.0043
     21 C          61.0465   88.5809    9.8015 C.ar    1  UNL1        0.0359
     22 C          60.6827   90.0304    9.6734 C.ar    1  UNL1        0.0043
     23 C          59.8728   90.4997    8.5013 C.ar    1  UNL1        0.0148
     24 N          58.4469   91.2976    4.0472 N.am    1  UNL1       -0.2887
     25 C          59.2567   90.8283    5.2194 C.2     1  UNL1        0.3045
     26 O          60.7065   91.1984    5.3258 O.2     1  UNL1       -0.2525
     27 N          58.6169   89.9888    6.2851 N.am    1  UNL1       -0.2683
     28 H          57.4954   91.0546    3.9774 H       1  UNL1        0.1510
     29 H          57.6654   89.7458    6.2153 H       1  UNL1        0.1564
     30 C          59.8823   93.3511    3.3598 C.3     1  UNL1        0.0230
     31 C          59.0868   92.1371    2.9815 C.3     1  UNL1        0.0910
     32 C          64.0071   82.7676   14.0666 C.3     1  UNL1        0.1175
     33 C          64.2856   81.9230   15.2745 C.3     1  UNL1        0.1606
     34 O          64.2574   80.6909   14.4195 O.3     1  UNL1       -0.3507
     35 C          63.9789   81.5355   13.2116 C.3     1  UNL1        0.1606
@<TRIPOS>BOND
     1    30    31    1
     2    31    24    1
     3    24    25   am
     4    25    26    2
     5    25    27   am
     6    27    18    1
     7    18    19   ar
     8    19    20   ar
     9    20    21   ar
    10    21     1    1
    11     1     2   ar
    12     2     3   ar
    13     3     4   ar
    14     4     5   ar
    15     5    11    1
    16    11    12    1
    17    12    13    1
    18    13    14    1
    19    14    15    1
    20    15    16    1
    21    16    17    1
    22     5     6   ar
    23     4     7    1
    24     7     8    1
    25     8     9    1
    26     9    32    1
    27    32    33    1
    28    33    34    1
    29    34    35    1
    30     9    10    1
    31    21    22   ar
    32    22    23   ar
    33    23    18   ar
    34     6     1   ar
    35    35    32    1
    36    10     3    1
    37    16    11    1
    38    24    28    1
    39    27    29    1
