@<TRIPOS>MOLECULE
*****
 37 42 0 0 0
SMALL
GASTEIGER

@<TRIPOS>ATOM
      1 C          62.4651   85.3054   12.5306 C.ar    1  UNL1        0.2389
      2 N          61.6485   85.5765   11.3020 N.ar    1  UNL1       -0.1956
      3 C          61.5893   86.9625   10.7315 C.ar    1  UNL1        0.1424
      4 C          62.3467   88.0775   11.3896 C.ar    1  UNL1        0.0785
      5 S          62.4777   89.5345   11.0581 S.2     1  UNL1       -0.0856
      6 C          63.3753   90.1639   12.0818 C.ar    1  UNL1        0.0251
      7 C          63.7990   89.0959   13.0461 C.ar    1  UNL1        0.0233
      8 C          63.1633   87.8064   12.6183 C.ar    1  UNL1        0.0933
      9 N          63.2225   86.4204   13.1888 N.ar    1  UNL1       -0.2105
     10 C          62.4247   83.5589   14.5538 C.ar    1  UNL1        0.1263
     11 N          62.5324   82.0673   14.6696 N.ar    1  UNL1       -0.2305
     12 C          62.6985   81.5059   13.2885 C.ar    1  UNL1        0.0987
     13 C          62.8538   80.1003   12.7884 C.ar    1  UNL1        0.0206
     14 C          63.0040   79.8394   11.3190 C.ar    1  UNL1        0.0016
     15 C          62.9990   80.9841   10.3496 C.ar    1  UNL1        0.0016
     16 C          62.8438   82.3897   10.8497 C.ar    1  UNL1        0.0192
     17 C          62.6936   82.6506   12.3192 C.ar    1  UNL1        0.0854
     18 N          62.5243   83.9194   13.1012 N.ar    1  UNL1       -0.2632
     19 C          63.4378   85.2365   16.2594 C.3     1  UNL1        0.0084
     20 C          62.2483   84.5211   15.6909 C.3     1  UNL1        0.0644
     21 N          60.7727   87.2335    9.5028 N.pl3   1  UNL1       -0.2876
     22 C          60.3199   86.0954    8.6370 C.3     1  UNL1        0.1243
     23 C          59.5032   86.3665    7.4084 C.3     1  UNL1        0.1636
     24 O          59.1394   87.7757    7.0454 O.3     1  UNL1       -0.3501
     25 C          59.5922   88.9138    7.9112 C.3     1  UNL1        0.1636
     26 C          60.4088   88.6427    9.1399 C.3     1  UNL1        0.1243
     27 C          63.7784   91.6078   12.1324 C.3     1  UNL1        0.1058
     28 N          64.9669   92.0266   12.9463 N.3     1  UNL1       -0.2660
     29 C          65.0069   91.7390   14.4180 C.3     1  UNL1        0.0918
     30 C          66.1952   92.1578   15.2319 C.3     1  UNL1        0.1128
     31 N          67.3435   92.8641   14.5742 N.3     1  UNL1       -0.1565
     32 C          67.3035   93.1517   13.1026 C.3     1  UNL1        0.1128
     33 C          66.1151   92.7329   12.2886 C.3     1  UNL1        0.0918
     34 S          68.5319   93.2829   15.3881 S.O2    1  UNL1        0.0457
     35 C          69.7202   93.7017   16.2020 C.3     1  UNL1        0.1960
     36 O          69.4472   92.7261   14.3383 O.2     1  UNL1       -0.1572
     37 O          67.6166   93.8397   16.4380 O.2     1  UNL1       -0.1572
@<TRIPOS>BOND
     1    19    20    1
     2    20    10    1
     3    10    11   ar
     4    11    12   ar
     5    12    13   ar
     6    13    14   ar
     7    14    15   ar
     8    15    16   ar
     9    16    17   ar
    10    17    18   ar
    11    18     1    1
    12     1     2   ar
    13     2     3   ar
    14     3    21    1
    15    21    22    1
    16    22    23    1
    17    23    24    1
    18    24    25    1
    19    25    26    1
    20     3     4   ar
    21     4     5   ar
    22     5     6   ar
    23     6    27    1
    24    27    28    1
    25    28    29    1
    26    29    30    1
    27    30    31    1
    28    31    34    1
    29    34    35    1
    30    34    36    2
    31    34    37    2
    32    31    32    1
    33    32    33    1
    34     6     7   ar
    35     7     8   ar
    36     8     9   ar
    37    18    10   ar
    38     9     1   ar
    39    17    12   ar
    40    26    21    1
    41     8     4   ar
    42    33    28    1
@<TRIPOS>MOLECULE
*****
 37 42 0 0 0
SMALL
GASTEIGER

@<TRIPOS>ATOM
      1 C          63.3829   86.0789   13.5153 C.ar    1  UNL1        0.2389
      2 N          62.5342   86.5416   12.3684 N.ar    1  UNL1       -0.1956
      3 C          62.5409   87.9864   11.9652 C.ar    1  UNL1        0.1424
      4 C          63.3965   88.9686   12.7090 C.ar    1  UNL1        0.0785
      5 S          63.6078   90.4441   12.5417 S.2     1  UNL1       -0.0856
      6 C          64.5871   90.8935   13.5852 C.ar    1  UNL1        0.0251
      7 C          64.9811   89.6956   14.3975 C.ar    1  UNL1        0.0233
      8 C          64.2453   88.5060   13.8560 C.ar    1  UNL1        0.0933
      9 N          64.2385   87.0612   14.2592 N.ar    1  UNL1       -0.2105
     10 C          63.4547   84.1100   15.3217 C.ar    1  UNL1        0.1263
     11 N          63.4167   82.6117   15.2596 N.ar    1  UNL1       -0.2305
     12 C          63.3147   82.2099   13.8180 C.ar    1  UNL1        0.0987
     13 C          63.2413   80.8674   13.1530 C.ar    1  UNL1        0.0206
     14 C          63.1429   80.7749   11.6591 C.ar    1  UNL1        0.0016
     15 C          63.1178   82.0248   10.8303 C.ar    1  UNL1        0.0016
     16 C          63.1911   83.3673   11.4952 C.ar    1  UNL1        0.0192
     17 C          63.2896   83.4599   12.9891 C.ar    1  UNL1        0.0854
     18 N          63.3761   84.6341   13.9185 N.ar    1  UNL1       -0.2632
     19 C          62.3702   85.7310   17.0381 C.3     1  UNL1        0.0084
     20 C          63.5539   84.9385   16.5681 C.3     1  UNL1        0.0644
     21 N          61.6922   88.4490   10.8183 N.pl3   1  UNL1       -0.2876
     22 C          61.5189   87.5737    9.6125 C.3     1  UNL1        0.1243
     23 C          60.6701   88.0363    8.4656 C.3     1  UNL1        0.1636
     24 O          59.9945   89.3742    8.5243 O.3     1  UNL1       -0.3501
     25 C          60.1678   90.2495    9.7300 C.3     1  UNL1        0.1636
     26 C          61.0166   89.7869   10.8770 C.3     1  UNL1        0.1243
     27 C          65.0850   92.2946   13.7819 C.3     1  UNL1        0.1058
     28 N          65.5781   93.0872   12.6077 N.3     1  UNL1       -0.2660
     29 C          65.5606   92.4833   11.2347 C.3     1  UNL1        0.0918
     30 C          66.0537   93.2758   10.0605 C.3     1  UNL1        0.1128
     31 N          66.5641   94.6722   10.2592 N.3     1  UNL1       -0.1565
     32 C          66.5815   95.2761   11.6321 C.3     1  UNL1        0.1128
     33 C          66.0885   94.4836   12.8064 C.3     1  UNL1        0.0918
     34 S          67.0572   95.4647    9.0850 S.O2    1  UNL1        0.0457
     35 C          67.5502   96.2574    7.9107 C.3     1  UNL1        0.1960
     36 O          67.5723   94.2063    8.4518 O.2     1  UNL1       -0.1572
     37 O          66.5420   96.7233    9.7181 O.2     1  UNL1       -0.1572
@<TRIPOS>BOND
     1    19    20    1
     2    20    10    1
     3    10    11   ar
     4    11    12   ar
     5    12    13   ar
     6    13    14   ar
     7    14    15   ar
     8    15    16   ar
     9    16    17   ar
    10    17    18   ar
    11    18     1    1
    12     1     2   ar
    13     2     3   ar
    14     3    21    1
    15    21    22    1
    16    22    23    1
    17    23    24    1
    18    24    25    1
    19    25    26    1
    20     3     4   ar
    21     4     5   ar
    22     5     6   ar
    23     6    27    1
    24    27    28    1
    25    28    29    1
    26    29    30    1
    27    30    31    1
    28    31    34    1
    29    34    35    1
    30    34    36    2
    31    34    37    2
    32    31    32    1
    33    32    33    1
    34     6     7   ar
    35     7     8   ar
    36     8     9   ar
    37    18    10   ar
    38     9     1   ar
    39    17    12   ar
    40    26    21    1
    41     8     4   ar
    42    33    28    1
@<TRIPOS>MOLECULE
*****
 37 42 0 0 0
SMALL
GASTEIGER

@<TRIPOS>ATOM
      1 C          63.0245   89.7179   12.4812 C.ar    1  UNL1        0.2389
      2 N          63.1927   88.2326   12.3567 N.ar    1  UNL1       -0.1956
      3 C          62.4884   87.4871   11.2621 C.ar    1  UNL1        0.1424
      4 C          61.6158   88.2269   10.2919 C.ar    1  UNL1        0.0785
      5 S          60.8020   87.7648    9.1197 S.2     1  UNL1       -0.0856
      6 C          60.1307   88.9645    8.5197 C.ar    1  UNL1        0.0251
      7 C          60.5297   90.1681    9.3210 C.ar    1  UNL1        0.0233
      8 C          61.4476   89.7122   10.4163 C.ar    1  UNL1        0.0933
      9 N          62.1519   90.4577   11.5109 N.ar    1  UNL1       -0.2105
     10 C          63.5498   90.2437   15.0488 C.ar    1  UNL1        0.1263
     11 N          64.4462   91.2041   15.7729 N.ar    1  UNL1       -0.2305
     12 C          65.1791   92.0173   14.7474 C.ar    1  UNL1        0.0987
     13 C          66.1929   93.1154   14.8747 C.ar    1  UNL1        0.0206
     14 C          66.7633   93.7558   13.6441 C.ar    1  UNL1        0.0016
     15 C          66.3200   93.2980   12.2862 C.ar    1  UNL1        0.0016
     16 C          65.3062   92.1999   12.1589 C.ar    1  UNL1        0.0192
     17 C          64.7357   91.5595   13.3895 C.ar    1  UNL1        0.0854
     18 N          63.7288   90.4634   13.5758 N.ar    1  UNL1       -0.2632
     19 C          63.0906   88.4671   16.8880 C.3     1  UNL1        0.0084
     20 C          62.6351   89.2400   15.6858 C.3     1  UNL1        0.0644
     21 N          62.6567   86.0018   11.1377 N.pl3   1  UNL1       -0.2876
     22 C          62.5144   85.1268   12.3477 C.3     1  UNL1        0.1243
     23 C          62.6826   83.6415   12.2233 C.3     1  UNL1        0.1636
     24 O          62.9933   83.0311   10.8888 O.3     1  UNL1       -0.3501
     25 C          63.1356   83.9060    9.6788 C.3     1  UNL1        0.1636
     26 C          62.9674   85.3913    9.8032 C.3     1  UNL1        0.1243
     27 C          59.2203   88.9613    7.3276 C.3     1  UNL1        0.1058
     28 N          59.3963   89.9863    6.2467 N.3     1  UNL1       -0.2660
     29 C          58.2106   90.7522    5.7392 C.3     1  UNL1        0.0918
     30 C          58.3865   91.7772    4.6583 C.3     1  UNL1        0.1128
     31 N          59.7481   92.0364    4.0849 N.3     1  UNL1       -0.1565
     32 C          60.9338   91.2705    4.5923 C.3     1  UNL1        0.1128
     33 C          60.7580   90.2455    5.6732 C.3     1  UNL1        0.0918
     34 S          59.9241   93.0614    3.0040 S.O2    1  UNL1        0.0457
     35 C          60.1001   94.0864    1.9230 C.3     1  UNL1        0.1960
     36 O          59.6424   94.1531    3.9933 O.2     1  UNL1       -0.1572
     37 O          60.2058   91.9697    2.0146 O.2     1  UNL1       -0.1572
@<TRIPOS>BOND
     1    19    20    1
     2    20    10    1
     3    10    11   ar
     4    11    12   ar
     5    12    13   ar
     6    13    14   ar
     7    14    15   ar
     8    15    16   ar
     9    16    17   ar
    10    17    18   ar
    11    18     1    1
    12     1     2   ar
    13     2     3   ar
    14     3    21    1
    15    21    22    1
    16    22    23    1
    17    23    24    1
    18    24    25    1
    19    25    26    1
    20     3     4   ar
    21     4     5   ar
    22     5     6   ar
    23     6    27    1
    24    27    28    1
    25    28    29    1
    26    29    30    1
    27    30    31    1
    28    31    34    1
    29    34    35    1
    30    34    36    2
    31    34    37    2
    32    31    32    1
    33    32    33    1
    34     6     7   ar
    35     7     8   ar
    36     8     9   ar
    37    18    10   ar
    38     9     1   ar
    39    17    12   ar
    40    26    21    1
    41     8     4   ar
    42    33    28    1
@<TRIPOS>MOLECULE
*****
 37 42 0 0 0
SMALL
GASTEIGER

@<TRIPOS>ATOM
      1 C          64.8731   91.1427   13.1697 C.ar    1  UNL1        0.2389
      2 N          63.8548   90.8153   12.1181 N.ar    1  UNL1       -0.1956
      3 C          63.2113   89.4606   12.0930 C.ar    1  UNL1        0.1424
      4 C          63.5862   88.4331   13.1196 C.ar    1  UNL1        0.0785
      5 S          63.1240   87.0240   13.3446 S.2     1  UNL1       -0.0856
      6 C          63.8567   86.4803   14.5352 C.ar    1  UNL1        0.0251
      7 C          64.7717   87.5536   15.0461 C.ar    1  UNL1        0.0233
      8 C          64.6045   88.7605   14.1712 C.ar    1  UNL1        0.0933
      9 N          65.2479   90.1152   14.1963 N.ar    1  UNL1       -0.2105
     10 C          66.1314   93.1594   14.3921 C.ar    1  UNL1        0.1263
     11 N          66.6529   94.4992   13.9641 N.ar    1  UNL1       -0.2305
     12 C          66.3604   94.6652   12.5023 C.ar    1  UNL1        0.0987
     13 C          66.6428   95.7830   11.5428 C.ar    1  UNL1        0.0206
     14 C          66.2228   95.6637   10.1078 C.ar    1  UNL1        0.0016
     15 C          65.5204   94.4265    9.6323 C.ar    1  UNL1        0.0016
     16 C          65.2380   93.3087   10.5918 C.ar    1  UNL1        0.0192
     17 C          65.6580   93.4280   12.0268 C.ar    1  UNL1        0.0854
     18 N          65.5165   92.4974   13.1947 N.ar    1  UNL1       -0.2632
     19 C          67.5474   92.2952   16.3916 C.3     1  UNL1        0.0084
     20 C          66.2108   92.5829   15.7746 C.3     1  UNL1        0.0644
     21 N          62.1931   89.1333   11.0414 N.pl3   1  UNL1       -0.2876
     22 C          61.0736   90.0904   10.7576 C.3     1  UNL1        0.1243
     23 C          60.0553   89.7631    9.7060 C.3     1  UNL1        0.1636
     24 O          60.1565   88.4786    8.9381 O.3     1  UNL1       -0.3501
     25 C          61.2759   87.5214    9.2219 C.3     1  UNL1        0.1636
     26 C          62.2942   87.8487   10.2735 C.3     1  UNL1        0.1243
     27 C          63.7017   85.1051   15.1135 C.3     1  UNL1        0.1058
     28 N          63.5113   83.9266   14.2052 N.3     1  UNL1       -0.2660
     29 C          64.4229   83.7305   13.0301 C.3     1  UNL1        0.0918
     30 C          64.2326   82.5521   12.1218 C.3     1  UNL1        0.1128
     31 N          63.1309   81.5697   12.3884 N.3     1  UNL1       -0.1565
     32 C          62.2193   81.7658   13.5635 C.3     1  UNL1        0.1128
     33 C          62.4095   82.9442   14.4718 C.3     1  UNL1        0.0918
     34 S          62.9405   80.3913   11.4802 S.O2    1  UNL1        0.0457
     35 C          62.7502   79.2128   10.5719 C.3     1  UNL1        0.1960
     36 O          63.3978   81.2163   10.3138 O.2     1  UNL1       -0.1572
     37 O          62.4833   79.5662   12.6465 O.2     1  UNL1       -0.1572
@<TRIPOS>BOND
     1    19    20    1
     2    20    10    1
     3    10    11   ar
     4    11    12   ar
     5    12    13   ar
     6    13    14   ar
     7    14    15   ar
     8    15    16   ar
     9    16    17   ar
    10    17    18   ar
    11    18     1    1
    12     1     2   ar
    13     2     3   ar
    14     3    21    1
    15    21    22    1
    16    22    23    1
    17    23    24    1
    18    24    25    1
    19    25    26    1
    20     3     4   ar
    21     4     5   ar
    22     5     6   ar
    23     6    27    1
    24    27    28    1
    25    28    29    1
    26    29    30    1
    27    30    31    1
    28    31    34    1
    29    34    35    1
    30    34    36    2
    31    34    37    2
    32    31    32    1
    33    32    33    1
    34     6     7   ar
    35     7     8   ar
    36     8     9   ar
    37    18    10   ar
    38     9     1   ar
    39    17    12   ar
    40    26    21    1
    41     8     4   ar
    42    33    28    1
@<TRIPOS>MOLECULE
*****
 37 42 0 0 0
SMALL
GASTEIGER

@<TRIPOS>ATOM
      1 C          62.6920   85.2056   11.4119 C.ar    1  UNL1        0.2389
      2 N          61.7992   85.8000   10.3633 N.ar    1  UNL1       -0.1956
      3 C          61.5276   87.2752   10.3579 C.ar    1  UNL1        0.1424
      4 C          62.1488   88.1560   11.4010 C.ar    1  UNL1        0.0785
      5 S          62.0648   89.6333   11.6468 S.2     1  UNL1       -0.0856
      6 C          62.9058   89.9521   12.8472 C.ar    1  UNL1        0.0251
      7 C          63.5095   88.6717   13.3434 C.ar    1  UNL1        0.0233
      8 C          63.0416   87.5617   12.4496 C.ar    1  UNL1        0.0933
      9 N          63.3132   86.0865   12.4551 N.ar    1  UNL1       -0.2105
     10 C          63.6668   82.9594   10.3398 C.ar    1  UNL1        0.1263
     11 N          63.7175   81.5197   10.7579 N.ar    1  UNL1       -0.2305
     12 C          63.0457   81.4010   12.0938 C.ar    1  UNL1        0.0987
     13 C          62.7980   80.2253   12.9917 C.ar    1  UNL1        0.0206
     14 C          62.0844   80.4159   14.2972 C.ar    1  UNL1        0.0016
     15 C          61.6185   81.7822   14.7048 C.ar    1  UNL1        0.0016
     16 C          61.8662   82.9579   13.8068 C.ar    1  UNL1        0.0192
     17 C          62.5798   82.7673   12.5013 C.ar    1  UNL1        0.0854
     18 N          62.9636   83.7304   11.4173 N.ar    1  UNL1       -0.2632
     19 C          63.3560   84.3779    8.1855 C.3     1  UNL1        0.0084
     20 C          64.2218   83.5281    9.0676 C.3     1  UNL1        0.0644
     21 N          60.6347   87.8695    9.3092 N.pl3   1  UNL1       -0.2876
     22 C          59.7413   86.9822    8.4941 C.3     1  UNL1        0.1243
     23 C          58.8485   87.5765    7.4455 C.3     1  UNL1        0.1636
     24 O          58.8490   89.0582    7.2120 O.3     1  UNL1       -0.3501
     25 C          59.7423   89.9455    8.0272 C.3     1  UNL1        0.1636
     26 C          60.6352   89.3512    9.0758 C.3     1  UNL1        0.1243
     27 C          63.1077   91.3123   13.4463 C.3     1  UNL1        0.1058
     28 N          64.4776   91.7467   13.8763 N.3     1  UNL1       -0.2660
     29 C          64.8123   91.8361   15.3357 C.3     1  UNL1        0.0918
     30 C          66.1821   92.2705   15.7658 C.3     1  UNL1        0.1128
     31 N          67.2171   92.6155   14.7364 N.3     1  UNL1       -0.1565
     32 C          66.8824   92.5260   13.2769 C.3     1  UNL1        0.1128
     33 C          65.5126   92.0916   12.8469 C.3     1  UNL1        0.0918
     34 S          68.5869   93.0498   15.1663 S.O2    1  UNL1        0.0457
     35 C          69.9568   93.4843   15.5963 C.3     1  UNL1        0.1960
     36 O          69.1806   92.3555   13.9766 O.2     1  UNL1       -0.1572
     37 O          67.9933   93.7443   16.3561 O.2     1  UNL1       -0.1572
@<TRIPOS>BOND
     1    19    20    1
     2    20    10    1
     3    10    11   ar
     4    11    12   ar
     5    12    13   ar
     6    13    14   ar
     7    14    15   ar
     8    15    16   ar
     9    16    17   ar
    10    17    18   ar
    11    18     1    1
    12     1     2   ar
    13     2     3   ar
    14     3    21    1
    15    21    22    1
    16    22    23    1
    17    23    24    1
    18    24    25    1
    19    25    26    1
    20     3     4   ar
    21     4     5   ar
    22     5     6   ar
    23     6    27    1
    24    27    28    1
    25    28    29    1
    26    29    30    1
    27    30    31    1
    28    31    34    1
    29    34    35    1
    30    34    36    2
    31    34    37    2
    32    31    32    1
    33    32    33    1
    34     6     7   ar
    35     7     8   ar
    36     8     9   ar
    37    18    10   ar
    38     9     1   ar
    39    17    12   ar
    40    26    21    1
    41     8     4   ar
    42    33    28    1
@<TRIPOS>MOLECULE
*****
 37 42 0 0 0
SMALL
GASTEIGER

@<TRIPOS>ATOM
      1 C          62.7375   84.6805   11.5885 C.ar    1  UNL1        0.2389
      2 N          61.8604   85.3269   10.5576 N.ar    1  UNL1       -0.1956
      3 C          61.6952   86.8177   10.5416 C.ar    1  UNL1        0.1424
      4 C          62.4071   87.6621   11.5566 C.ar    1  UNL1        0.0785
      5 S          62.4362   89.1441   11.7866 S.2     1  UNL1       -0.0856
      6 C          63.3313   89.4136   12.9596 C.ar    1  UNL1        0.0251
      7 C          63.8554   88.0982   13.4547 C.ar    1  UNL1        0.0233
      8 C          63.2842   87.0157   12.5875 C.ar    1  UNL1        0.0933
      9 N          63.4494   85.5249   12.6035 N.ar    1  UNL1       -0.2105
     10 C          63.5549   82.3634   10.5358 C.ar    1  UNL1        0.1263
     11 N          63.5000   80.9265   10.9628 N.ar    1  UNL1       -0.2305
     12 C          62.8139   80.8648   12.2953 C.ar    1  UNL1        0.0987
     13 C          62.4776   79.7156   13.1987 C.ar    1  UNL1        0.0206
     14 C          61.7721   79.9652   14.4987 C.ar    1  UNL1        0.0016
     15 C          61.4030   81.3639   14.8953 C.ar    1  UNL1        0.0016
     16 C          61.7393   82.5131   13.9918 C.ar    1  UNL1        0.0192
     17 C          62.4447   82.2635   12.6918 C.ar    1  UNL1        0.0854
     18 N          62.9027   83.1897   11.6044 N.ar    1  UNL1       -0.2632
     19 C          63.8828   84.2908    8.8249 C.3     1  UNL1        0.0084
     20 C          64.1564   82.8828    9.2637 C.3     1  UNL1        0.0644
     21 N          60.8181   87.4641    9.5107 N.pl3   1  UNL1       -0.2876
     22 C          59.9478   86.6180    8.6293 C.3     1  UNL1        0.1243
     23 C          59.0707   87.2644    7.5984 C.3     1  UNL1        0.1636
     24 O          59.0638   88.7569    7.4488 O.3     1  UNL1       -0.3501
     25 C          59.9340   89.6030    8.3302 C.3     1  UNL1        0.1636
     26 C          60.8111   88.9566    9.3612 C.3     1  UNL1        0.1243
     27 C          63.6470   90.7617   13.5364 C.3     1  UNL1        0.1058
     28 N          64.4249   91.7591   12.7300 N.3     1  UNL1       -0.2660
     29 C          63.9960   92.0906   11.3314 C.3     1  UNL1        0.0918
     30 C          64.7738   93.0879   10.5249 C.3     1  UNL1        0.1128
     31 N          65.9804   93.7538   11.1171 N.3     1  UNL1       -0.1565
     32 C          66.4093   93.4223   12.5158 C.3     1  UNL1        0.1128
     33 C          65.6315   92.4250   13.3222 C.3     1  UNL1        0.0918
     34 S          66.7583   94.7511   10.3108 S.O2    1  UNL1        0.0457
     35 C          67.5361   95.7486    9.5044 C.3     1  UNL1        0.1960
     36 O          67.9383   93.8251   10.3036 O.2     1  UNL1       -0.1572
     37 O          65.5782   95.6772   10.3179 O.2     1  UNL1       -0.1572
@<TRIPOS>BOND
     1    19    20    1
     2    20    10    1
     3    10    11   ar
     4    11    12   ar
     5    12    13   ar
     6    13    14   ar
     7    14    15   ar
     8    15    16   ar
     9    16    17   ar
    10    17    18   ar
    11    18     1    1
    12     1     2   ar
    13     2     3   ar
    14     3    21    1
    15    21    22    1
    16    22    23    1
    17    23    24    1
    18    24    25    1
    19    25    26    1
    20     3     4   ar
    21     4     5   ar
    22     5     6   ar
    23     6    27    1
    24    27    28    1
    25    28    29    1
    26    29    30    1
    27    30    31    1
    28    31    34    1
    29    34    35    1
    30    34    36    2
    31    34    37    2
    32    31    32    1
    33    32    33    1
    34     6     7   ar
    35     7     8   ar
    36     8     9   ar
    37    18    10   ar
    38     9     1   ar
    39    17    12   ar
    40    26    21    1
    41     8     4   ar
    42    33    28    1
