@<TRIPOS>MOLECULE
*****
 22 25 0 0 0
SMALL
GASTEIGER

@<TRIPOS>ATOM
      1 C          62.5502   84.8214   12.3808 C.ar    1  UNL1        0.0961
      2 N          61.8657   85.3723   11.1651 N.ar    1  UNL1       -0.2268
      3 C          62.1468   86.8444   11.1020 C.ar    1  UNL1        0.1476
      4 C          61.7321   87.9044   10.1250 C.ar    1  UNL1        0.0397
      5 C          62.1756   89.3233   10.3248 C.ar    1  UNL1        0.0343
      6 C          63.0339   89.6822   11.5015 C.ar    1  UNL1        0.1577
      7 F          63.4774   91.1012   11.7013 F       1  UNL1       -0.2026
      8 C          63.4486   88.6222   12.4784 C.ar    1  UNL1        0.1110
      9 N          63.0050   87.2033   12.2786 N.ar    1  UNL1       -0.2906
     10 C          63.2544   85.9530   13.0690 C.ar    1  UNL1        0.0600
     11 C          62.8286   82.2935   11.8496 C.ar    1  UNL1        0.0098
     12 C          62.8120   80.8623   12.2983 C.ar    1  UNL1        0.1553
     13 F          63.1071   79.7656   11.3183 F       1  UNL1       -0.2029
     14 C          62.5002   80.5277   13.7269 C.ar    1  UNL1        0.1281
     15 N          62.2052   81.6244   14.7067 N.ar    1  UNL1       -0.2399
     16 C          62.2219   83.0556   14.2580 C.ar    1  UNL1        0.1002
     17 C          62.5336   83.3902   12.8295 C.ar    1  UNL1        0.0362
     18 C          64.5265   83.0522   10.0352 C.3     1  UNL1        0.0051
     19 C          63.1404   82.6280   10.4209 C.3     1  UNL1        0.0288
     20 C          64.0654   85.8521   14.3268 C.3     1  UNL1        0.0402
     21 C          65.3924   85.6905   15.0073 C.3     1  UNL1        0.0063
     22 C          64.1435   85.8390   15.8246 C.3     1  UNL1        0.0063
@<TRIPOS>BOND
     1    18    19    1
     2    19    11    1
     3    11    12   ar
     4    12    13    1
     5    12    14   ar
     6    14    15   ar
     7    15    16   ar
     8    16    17   ar
     9    17     1    1
    10     1     2   ar
    11     2     3   ar
    12     3     4   ar
    13     4     5   ar
    14     5     6   ar
    15     6     7    1
    16     6     8   ar
    17     8     9   ar
    18     9    10   ar
    19    10    20    1
    20    20    21    1
    21    21    22    1
    22    17    11   ar
    23    10     1   ar
    24    22    20    1
    25     9     3   ar
@<TRIPOS>MOLECULE
*****
 22 25 0 0 0
SMALL
GASTEIGER

@<TRIPOS>ATOM
      1 C          63.4072   90.2983   12.6521 C.ar    1  UNL1        0.0961
      2 N          62.6404   90.8930   11.5083 N.ar    1  UNL1       -0.2268
      3 C          61.9902   89.7717   10.7533 C.ar    1  UNL1        0.1476
      4 C          61.1130   89.7569    9.5366 C.ar    1  UNL1        0.0397
      5 C          60.6008   88.4544    8.9972 C.ar    1  UNL1        0.0343
      6 C          60.9657   87.1667    9.6745 C.ar    1  UNL1        0.1577
      7 F          60.4534   85.8641    9.1350 F       1  UNL1       -0.2026
      8 C          61.8429   87.1815   10.8911 C.ar    1  UNL1        0.1110
      9 N          62.3551   88.4840   11.4305 N.ar    1  UNL1       -0.2906
     10 C          63.2309   88.8095   12.6041 C.ar    1  UNL1        0.0600
     11 C          65.3724   91.8978   13.2261 C.ar    1  UNL1        0.0098
     12 C          66.1746   92.6584   14.2400 C.ar    1  UNL1        0.1553
     13 F          67.3377   93.4973   13.8000 F       1  UNL1       -0.2029
     14 C          65.8138   92.5801   15.6938 C.ar    1  UNL1        0.1281
     15 N          64.6508   91.7412   16.1337 N.ar    1  UNL1       -0.2399
     16 C          63.8486   90.9806   15.1198 C.ar    1  UNL1        0.1002
     17 C          64.2094   91.0589   13.6660 C.ar    1  UNL1        0.0362
     18 C          65.4463   93.2262   10.9945 C.3     1  UNL1        0.0051
     19 C          65.7333   91.9761   11.7722 C.3     1  UNL1        0.0288
     20 C          63.8259   87.8198   13.5614 C.3     1  UNL1        0.0402
     21 C          64.1292   86.4007   13.9413 C.3     1  UNL1        0.0063
     22 C          64.5530   87.5246   14.8398 C.3     1  UNL1        0.0063
@<TRIPOS>BOND
     1    18    19    1
     2    19    11    1
     3    11    12   ar
     4    12    13    1
     5    12    14   ar
     6    14    15   ar
     7    15    16   ar
     8    16    17   ar
     9    17     1    1
    10     1     2   ar
    11     2     3   ar
    12     3     4   ar
    13     4     5   ar
    14     5     6   ar
    15     6     7    1
    16     6     8   ar
    17     8     9   ar
    18     9    10   ar
    19    10    20    1
    20    20    21    1
    21    21    22    1
    22    17    11   ar
    23    10     1   ar
    24    22    20    1
    25     9     3   ar
@<TRIPOS>MOLECULE
*****
 22 25 0 0 0
SMALL
GASTEIGER

@<TRIPOS>ATOM
      1 C          63.2539   85.5389   12.6199 C.ar    1  UNL1        0.0961
      2 N          63.8904   86.2367   13.7852 N.ar    1  UNL1       -0.2268
      3 C          63.8214   87.7141   13.5349 C.ar    1  UNL1        0.1476
      4 C          64.2892   88.8912   14.3384 C.ar    1  UNL1        0.0397
      5 C          64.0779   90.2834   13.8219 C.ar    1  UNL1        0.0343
      6 C          63.3986   90.4987   12.5019 C.ar    1  UNL1        0.1577
      7 F          63.1873   91.8911   11.9854 F       1  UNL1       -0.2026
      8 C          62.9308   89.3216   11.6984 C.ar    1  UNL1        0.1110
      9 N          63.1422   87.9293   12.2149 N.ar    1  UNL1       -0.2906
     10 C          62.7915   86.5850   11.6495 C.ar    1  UNL1        0.0600
     11 C          62.4295   83.2455   13.5203 C.ar    1  UNL1        0.0098
     12 C          62.2814   81.7621   13.3546 C.ar    1  UNL1        0.1553
     13 F          61.6051   80.9521   14.4208 F       1  UNL1       -0.2029
     14 C          62.8097   81.0886   12.1228 C.ar    1  UNL1        0.1281
     15 N          63.4860   81.8985   11.0567 N.ar    1  UNL1       -0.2399
     16 C          63.6340   83.3819   11.2224 C.ar    1  UNL1        0.1002
     17 C          63.1058   84.0555   12.4542 C.ar    1  UNL1        0.0362
     18 C          62.7347   83.9636   15.9985 C.3     1  UNL1        0.0051
     19 C          61.9013   83.9190   14.7522 C.3     1  UNL1        0.0288
     20 C          62.0997   86.3313   10.3429 C.3     1  UNL1        0.0402
     21 C          62.1587   85.9362    8.8970 C.3     1  UNL1        0.0063
     22 C          60.8427   86.2870    9.5256 C.3     1  UNL1        0.0063
@<TRIPOS>BOND
     1    18    19    1
     2    19    11    1
     3    11    12   ar
     4    12    13    1
     5    12    14   ar
     6    14    15   ar
     7    15    16   ar
     8    16    17   ar
     9    17     1    1
    10     1     2   ar
    11     2     3   ar
    12     3     4   ar
    13     4     5   ar
    14     5     6   ar
    15     6     7    1
    16     6     8   ar
    17     8     9   ar
    18     9    10   ar
    19    10    20    1
    20    20    21    1
    21    21    22    1
    22    17    11   ar
    23    10     1   ar
    24    22    20    1
    25     9     3   ar
@<TRIPOS>MOLECULE
*****
 22 25 0 0 0
SMALL
GASTEIGER

@<TRIPOS>ATOM
      1 C          62.7918   86.4202   12.0948 C.ar    1  UNL1        0.0961
      2 N          62.9363   85.8211   13.4623 N.ar    1  UNL1       -0.2268
      3 C          62.9214   84.3281   13.3184 C.ar    1  UNL1        0.1476
      4 C          63.0280   83.2216   14.3254 C.ar    1  UNL1        0.0397
      5 C          62.9807   81.7913   13.8758 C.ar    1  UNL1        0.0343
      6 C          62.8270   81.4676   12.4193 C.ar    1  UNL1        0.1577
      7 F          62.7798   80.0373   11.9698 F       1  UNL1       -0.2026
      8 C          62.7204   82.5742   11.4122 C.ar    1  UNL1        0.1110
      9 N          62.7676   84.0044   11.8618 N.ar    1  UNL1       -0.2906
     10 C          62.6875   85.2974   11.1056 C.ar    1  UNL1        0.0600
     11 C          63.4679   88.8644   12.6593 C.ar    1  UNL1        0.0098
     12 C          63.4336   90.3290   12.3375 C.ar    1  UNL1        0.1553
     13 F          64.1440   91.3086   13.2240 F       1  UNL1       -0.2029
     14 C          62.6890   90.8142   11.1291 C.ar    1  UNL1        0.1281
     15 N          61.9786   89.8346   10.2427 N.ar    1  UNL1       -0.2399
     16 C          62.0128   88.3700   10.5646 C.ar    1  UNL1        0.1002
     17 C          62.7575   87.8849   11.7729 C.ar    1  UNL1        0.0362
     18 C          63.8509   88.8955   15.2289 C.3     1  UNL1        0.0051
     19 C          64.2126   88.3793   13.8677 C.3     1  UNL1        0.0288
     20 C          62.5307   85.4421    9.6208 C.3     1  UNL1        0.0402
     21 C          63.0798   85.2788    8.2345 C.3     1  UNL1        0.0063
     22 C          61.7100   85.8560    8.4355 C.3     1  UNL1        0.0063
@<TRIPOS>BOND
     1    18    19    1
     2    19    11    1
     3    11    12   ar
     4    12    13    1
     5    12    14   ar
     6    14    15   ar
     7    15    16   ar
     8    16    17   ar
     9    17     1    1
    10     1     2   ar
    11     2     3   ar
    12     3     4   ar
    13     4     5   ar
    14     5     6   ar
    15     6     7    1
    16     6     8   ar
    17     8     9   ar
    18     9    10   ar
    19    10    20    1
    20    20    21    1
    21    21    22    1
    22    17    11   ar
    23    10     1   ar
    24    22    20    1
    25     9     3   ar
@<TRIPOS>MOLECULE
*****
 22 25 0 0 0
SMALL
GASTEIGER

@<TRIPOS>ATOM
      1 C          62.4424   85.9258   11.9499 C.ar    1  UNL1        0.0961
      2 N          62.2831   85.2458   13.2773 N.ar    1  UNL1       -0.2268
      3 C          62.4416   83.7695   13.0639 C.ar    1  UNL1        0.1476
      4 C          62.3849   82.6069   14.0099 C.ar    1  UNL1        0.0397
      5 C          62.5856   81.2118   13.4965 C.ar    1  UNL1        0.0343
      6 C          62.8429   80.9795   12.0371 C.ar    1  UNL1        0.1577
      7 F          63.0435   79.5844   11.5237 F       1  UNL1       -0.2026
      8 C          62.8995   82.1421   11.0911 C.ar    1  UNL1        0.1110
      9 N          62.6989   83.5372   11.6045 N.ar    1  UNL1       -0.2906
     10 C          62.6994   84.8698   10.9160 C.ar    1  UNL1        0.0600
     11 C          61.2543   87.9587   10.8519 C.ar    1  UNL1        0.0098
     12 C          61.1712   89.4355   10.6021 C.ar    1  UNL1        0.1553
     13 F          60.0661   89.9916    9.7539 F       1  UNL1       -0.2029
     14 C          62.1932   90.3560   11.2006 C.ar    1  UNL1        0.1281
     15 N          63.2982   89.7998   12.0488 N.ar    1  UNL1       -0.2399
     16 C          63.3813   88.3231   12.2985 C.ar    1  UNL1        0.1002
     17 C          62.3593   87.4025   11.7001 C.ar    1  UNL1        0.0362
     18 C          59.9549   87.0819    8.7799 C.3     1  UNL1        0.0051
     19 C          60.2323   87.0382   10.2534 C.3     1  UNL1        0.0288
     20 C          62.9185   85.1052    9.4509 C.3     1  UNL1        0.0402
     21 C          63.3516   86.0029    8.3299 C.3     1  UNL1        0.0063
     22 C          62.8648   84.6152    8.0342 C.3     1  UNL1        0.0063
@<TRIPOS>BOND
     1    18    19    1
     2    19    11    1
     3    11    12   ar
     4    12    13    1
     5    12    14   ar
     6    14    15   ar
     7    15    16   ar
     8    16    17   ar
     9    17     1    1
    10     1     2   ar
    11     2     3   ar
    12     3     4   ar
    13     4     5   ar
    14     5     6   ar
    15     6     7    1
    16     6     8   ar
    17     8     9   ar
    18     9    10   ar
    19    10    20    1
    20    20    21    1
    21    21    22    1
    22    17    11   ar
    23    10     1   ar
    24    22    20    1
    25     9     3   ar
@<TRIPOS>MOLECULE
*****
 22 25 0 0 0
SMALL
GASTEIGER

@<TRIPOS>ATOM
      1 C          62.2473   86.2900   11.2685 C.ar    1  UNL1        0.0961
      2 N          61.3951   85.5231   10.3013 N.ar    1  UNL1       -0.2268
      3 C          60.7349   86.5084    9.3829 C.ar    1  UNL1        0.1476
      4 C          59.7867   86.3305    8.2344 C.ar    1  UNL1        0.0397
      5 C          59.2827   87.5285    7.4855 C.ar    1  UNL1        0.0343
      6 C          59.7269   88.9043    7.8852 C.ar    1  UNL1        0.1577
      7 F          59.2229   90.1023    7.1363 F       1  UNL1       -0.2026
      8 C          60.6752   89.0822    9.0337 C.ar    1  UNL1        0.1110
      9 N          61.1792   87.8842    9.7826 N.ar    1  UNL1       -0.2906
     10 C          62.1139   87.7492   10.9480 C.ar    1  UNL1        0.0600
     11 C          63.5280   84.2700   12.2831 C.ar    1  UNL1        0.0098
     12 C          64.3665   83.6810   13.3786 C.ar    1  UNL1        0.1553
     13 F          64.8087   82.2499   13.2977 F       1  UNL1       -0.2029
     14 C          64.7627   84.5231   14.5550 C.ar    1  UNL1        0.1281
     15 N          64.3205   85.9541   14.6359 N.ar    1  UNL1       -0.2399
     16 C          63.4820   86.5430   13.5404 C.ar    1  UNL1        0.1002
     17 C          63.0858   85.7010   12.3640 C.ar    1  UNL1        0.0362
     18 C          64.1631   83.0139   10.0993 C.3     1  UNL1        0.0051
     19 C          63.1318   83.4279   11.1067 C.3     1  UNL1        0.0288
     20 C          62.7954   88.8757   11.6666 C.3     1  UNL1        0.0402
     21 C          63.4989   89.4051   12.8811 C.3     1  UNL1        0.0063
     22 C          63.2726   90.2975   11.6969 C.3     1  UNL1        0.0063
@<TRIPOS>BOND
     1    18    19    1
     2    19    11    1
     3    11    12   ar
     4    12    13    1
     5    12    14   ar
     6    14    15   ar
     7    15    16   ar
     8    16    17   ar
     9    17     1    1
    10     1     2   ar
    11     2     3   ar
    12     3     4   ar
    13     4     5   ar
    14     5     6   ar
    15     6     7    1
    16     6     8   ar
    17     8     9   ar
    18     9    10   ar
    19    10    20    1
    20    20    21    1
    21    21    22    1
    22    17    11   ar
    23    10     1   ar
    24    22    20    1
    25     9     3   ar
@<TRIPOS>MOLECULE
*****
 22 25 0 0 0
SMALL
GASTEIGER

@<TRIPOS>ATOM
      1 C          63.5130   89.8924   12.0639 C.ar    1  UNL1        0.0961
      2 N          63.9447   90.9953   11.1435 N.ar    1  UNL1       -0.2268
      3 C          64.7995   91.9459   11.9281 C.ar    1  UNL1        0.1476
      4 C          65.5025   93.2142   11.5444 C.ar    1  UNL1        0.0397
      5 C          66.3020   93.9671   12.5661 C.ar    1  UNL1        0.0343
      6 C          66.3985   93.4517   13.9714 C.ar    1  UNL1        0.1577
      7 F          67.1981   94.2047   14.9931 F       1  UNL1       -0.2026
      8 C          65.6956   92.1834   14.3551 C.ar    1  UNL1        0.1110
      9 N          64.8961   91.4305   13.3335 N.ar    1  UNL1       -0.2906
     10 C          64.1010   90.1614   13.4174 C.ar    1  UNL1        0.0600
     11 C          61.3034   88.9573   11.0672 C.ar    1  UNL1        0.0098
     12 C          60.4360   87.7903   10.6989 C.ar    1  UNL1        0.1553
     13 F          59.0938   88.0223   10.0705 F       1  UNL1       -0.2029
     14 C          60.9106   86.3914   10.9589 C.ar    1  UNL1        0.1281
     15 N          62.2527   86.1595   11.5873 N.ar    1  UNL1       -0.2399
     16 C          63.1202   87.3265   11.9556 C.ar    1  UNL1        0.1002
     17 C          62.6455   88.7254   11.6956 C.ar    1  UNL1        0.0362
     18 C          59.5240   90.8243   11.3805 C.3     1  UNL1        0.0051
     19 C          60.8287   90.3563   10.8072 C.3     1  UNL1        0.0288
     20 C          63.9248   89.3106   14.6402 C.3     1  UNL1        0.0402
     21 C          63.4416   89.1480   16.0510 C.3     1  UNL1        0.0063
     22 C          64.1026   87.9999   15.3474 C.3     1  UNL1        0.0063
@<TRIPOS>BOND
     1    18    19    1
     2    19    11    1
     3    11    12   ar
     4    12    13    1
     5    12    14   ar
     6    14    15   ar
     7    15    16   ar
     8    16    17   ar
     9    17     1    1
    10     1     2   ar
    11     2     3   ar
    12     3     4   ar
    13     4     5   ar
    14     5     6   ar
    15     6     7    1
    16     6     8   ar
    17     8     9   ar
    18     9    10   ar
    19    10    20    1
    20    20    21    1
    21    21    22    1
    22    17    11   ar
    23    10     1   ar
    24    22    20    1
    25     9     3   ar
@<TRIPOS>MOLECULE
*****
 22 25 0 0 0
SMALL
GASTEIGER

@<TRIPOS>ATOM
      1 C          64.8291   91.3528   13.3126 C.ar    1  UNL1        0.0961
      2 N          64.5978   91.8271   11.9085 N.ar    1  UNL1       -0.2268
      3 C          63.4491   91.0482   11.3393 C.ar    1  UNL1        0.1476
      4 C          62.7772   91.0858    9.9988 C.ar    1  UNL1        0.0397
      5 C          61.6266   90.1676    9.7106 C.ar    1  UNL1        0.0343
      6 C          61.1479   89.2119   10.7630 C.ar    1  UNL1        0.1577
      7 F          59.9973   88.2938   10.4748 F       1  UNL1       -0.2026
      8 C          61.8198   89.1744   12.1036 C.ar    1  UNL1        0.1110
      9 N          62.9704   90.0926   12.3917 N.ar    1  UNL1       -0.2906
     10 C          63.8233   90.2808   13.6112 C.ar    1  UNL1        0.0600
     11 C          67.3090   91.9528   13.8022 C.ar    1  UNL1        0.0098
     12 C          68.3613   92.4613   14.7425 C.ar    1  UNL1        0.1553
     13 F          69.7890   92.5528   14.2917 F       1  UNL1       -0.2029
     14 C          67.9858   92.8781   16.1336 C.ar    1  UNL1        0.1281
     15 N          66.5581   92.7866   16.5844 N.ar    1  UNL1       -0.2399
     16 C          65.5059   92.2781   15.6440 C.ar    1  UNL1        0.1002
     17 C          65.8813   91.8613   14.2529 C.ar    1  UNL1        0.0362
     18 C          67.7332   92.5539   11.3104 C.3     1  UNL1        0.0051
     19 C          67.6845   91.5359   12.4110 C.3     1  UNL1        0.0288
     20 C          63.6931   89.5290   14.9027 C.3     1  UNL1        0.0402
     21 C          63.2738   89.4825   16.3422 C.3     1  UNL1        0.0063
     22 C          63.8870   88.2735   15.7002 C.3     1  UNL1        0.0063
@<TRIPOS>BOND
     1    18    19    1
     2    19    11    1
     3    11    12   ar
     4    12    13    1
     5    12    14   ar
     6    14    15   ar
     7    15    16   ar
     8    16    17   ar
     9    17     1    1
    10     1     2   ar
    11     2     3   ar
    12     3     4   ar
    13     4     5   ar
    14     5     6   ar
    15     6     7    1
    16     6     8   ar
    17     8     9   ar
    18     9    10   ar
    19    10    20    1
    20    20    21    1
    21    21    22    1
    22    17    11   ar
    23    10     1   ar
    24    22    20    1
    25     9     3   ar
@<TRIPOS>MOLECULE
*****
 22 25 0 0 0
SMALL
GASTEIGER

@<TRIPOS>ATOM
      1 C          62.0965   86.9431   10.7811 C.ar    1  UNL1        0.0961
      2 N          62.6038   86.0090   11.8394 N.ar    1  UNL1       -0.2268
      3 C          63.2886   86.8291   12.8922 C.ar    1  UNL1        0.1476
      4 C          63.9778   86.4499   14.1694 C.ar    1  UNL1        0.0397
      5 C          64.5829   87.5118   15.0389 C.ar    1  UNL1        0.0343
      6 C          64.4988   88.9529   14.6313 C.ar    1  UNL1        0.1577
      7 F          65.1040   90.0148   15.5009 F       1  UNL1       -0.2026
      8 C          63.8097   89.3321   13.3541 C.ar    1  UNL1        0.1110
      9 N          63.2045   88.2702   12.4846 N.ar    1  UNL1       -0.2906
     10 C          62.4678   88.3407   11.1798 C.ar    1  UNL1        0.0600
     11 C          62.0045   85.6691    8.5187 C.ar    1  UNL1        0.0098
     12 C          61.2572   85.2749    7.2793 C.ar    1  UNL1        0.1553
     13 F          61.9125   84.3949    6.2564 F       1  UNL1       -0.2029
     14 C          59.8546   85.7606    7.0628 C.ar    1  UNL1        0.1281
     15 N          59.1994   86.6405    8.0857 N.ar    1  UNL1       -0.2399
     16 C          59.9467   87.0347    9.3251 C.ar    1  UNL1        0.1002
     17 C          61.3492   86.5490    9.5417 C.ar    1  UNL1        0.0362
     18 C          63.6478   83.8390    9.3556 C.3     1  UNL1        0.0051
     19 C          63.4071   85.1833    8.7352 C.3     1  UNL1        0.0288
     20 C          62.1570   89.5894   10.4092 C.3     1  UNL1        0.0402
     21 C          61.1981   90.4120    9.6003 C.3     1  UNL1        0.0063
     22 C          62.5772   90.9298    9.8832 C.3     1  UNL1        0.0063
@<TRIPOS>BOND
     1    18    19    1
     2    19    11    1
     3    11    12   ar
     4    12    13    1
     5    12    14   ar
     6    14    15   ar
     7    15    16   ar
     8    16    17   ar
     9    17     1    1
    10     1     2   ar
    11     2     3   ar
    12     3     4   ar
    13     4     5   ar
    14     5     6   ar
    15     6     7    1
    16     6     8   ar
    17     8     9   ar
    18     9    10   ar
    19    10    20    1
    20    20    21    1
    21    21    22    1
    22    17    11   ar
    23    10     1   ar
    24    22    20    1
    25     9     3   ar
