@<TRIPOS>MOLECULE
*****
 39 42 0 0 0
SMALL
GASTEIGER

@<TRIPOS>ATOM
      1 C          65.7304   92.0709   12.5723 C.3     1  UNL1        0.1594
      2 C          65.2551   91.0898   13.6025 C.3     1  UNL1        0.0661
      3 C          64.0530   90.2360   13.3268 C.3     1  UNL1        0.1009
      4 N          63.3263   90.3633   12.0207 N.am    1  UNL1       -0.2438
      5 C          63.8016   91.3444   10.9905 C.2     1  UNL1        0.4051
      6 O          63.0749   91.4718    9.6845 O.2     1  UNL1       -0.2262
      7 O          65.0037   92.1982   11.2663 O.3     1  UNL1       -0.4375
      8 C          66.7446   92.3136   13.6506 C.ar    1  UNL1        0.0139
      9 C          68.1882   91.9850   13.4102 C.ar    1  UNL1        0.0014
     10 C          69.2023   92.2277   14.4884 C.ar    1  UNL1        0.0294
     11 C          68.7727   92.7990   15.8072 C.ar    1  UNL1        0.1401
     12 F          69.7869   93.0417   16.8855 F       1  UNL1       -0.2042
     13 C          67.3291   93.1276   16.0476 C.ar    1  UNL1        0.0294
     14 C          66.3150   92.8849   14.9694 C.ar    1  UNL1        0.0014
     15 C          62.1242   89.5095   11.7450 C.3     1  UNL1        0.1011
     16 C          60.7950   90.1503   11.4755 C.3     1  UNL1        0.0265
     17 C          62.2514   88.0150   11.7387 C.ar    1  UNL1       -0.0042
     18 C          63.1825   87.3373   12.6998 C.ar    1  UNL1       -0.0027
     19 C          63.3096   85.8428   12.6935 C.ar    1  UNL1       -0.0002
     20 C          62.5055   85.0257   11.7260 C.ar    1  UNL1        0.0021
     21 C          61.5743   85.7033   10.7649 C.ar    1  UNL1       -0.0002
     22 C          61.4472   87.1979   10.7712 C.ar    1  UNL1       -0.0027
     23 C          62.6326   83.5312   11.7197 C.ar    1  UNL1        0.0276
     24 C          62.1907   82.7358   12.9122 C.ar    1  UNL1        0.0045
     25 C          62.3177   81.2413   12.9060 C.ar    1  UNL1        0.0298
     26 C          62.8867   80.5419   11.7071 C.ar    1  UNL1        0.1424
     27 F          63.0137   79.0474   11.7008 F       1  UNL1       -0.2041
     28 C          63.3286   81.3372   10.5145 C.ar    1  UNL1        0.0592
     29 C          63.2015   82.8319   10.5208 C.ar    1  UNL1        0.1423
     30 F          63.6434   83.6271    9.3282 F       1  UNL1       -0.2041
     31 C          66.5580   93.1363   11.9166 C.3     1  UNL1        0.0658
     32 C          66.1604   94.5773   12.0404 C.3     1  UNL1        0.0949
     33 C          66.0880   96.8107    7.3493 C.3     1  UNL1        0.1122
     34 N          65.3668   96.3611    8.5852 N.am    1  UNL1       -0.2872
     35 C          66.1242   95.6940    9.6949 C.2     1  UNL1        0.3008
     36 O          67.6030   95.4766    9.5685 O.2     1  UNL1       -0.2528
     37 N          65.4029   95.2444   10.9308 N.am    1  UNL1       -0.2888
     38 H          64.3962   96.5038    8.6681 H       1  UNL1        0.1510
     39 H          64.4323   95.3871   11.0136 H       1  UNL1        0.1510
@<TRIPOS>BOND
     1    33    34    1
     2    34    35   am
     3    35    36    2
     4    35    37   am
     5    37    32    1
     6    32    31    1
     7     1    31    1
     8     1     8    1
     9     8     9   ar
    10     9    10   ar
    11    10    11   ar
    12    11    12    1
    13    11    13   ar
    14    13    14   ar
    15     1     2    1
    16     2     3    1
    17     3     4    1
    18     4    15    1
    19    15    16    1
    20    15    17    1
    21    17    18   ar
    22    18    19   ar
    23    19    20   ar
    24    20    23    1
    25    23    24   ar
    26    24    25   ar
    27    25    26   ar
    28    26    27    1
    29    26    28   ar
    30    28    29   ar
    31    29    30    1
    32    20    21   ar
    33    21    22   ar
    34     4     5   am
    35     5     6    2
    36     5     7    1
    37     7     1    1
    38    14     8   ar
    39    22    17   ar
    40    29    23   ar
    41    34    38    1
    42    37    39    1
@<TRIPOS>MOLECULE
*****
 39 42 0 0 0
SMALL
GASTEIGER

@<TRIPOS>ATOM
      1 C          65.0341   92.4863   11.6837 C.3     1  UNL1        0.1594
      2 C          64.4052   92.1859   10.3555 C.3     1  UNL1        0.0661
      3 C          63.2514   91.2312   10.2707 C.3     1  UNL1        0.1009
      4 N          62.7265   90.5768   11.5142 N.am    1  UNL1       -0.2438
      5 C          63.3554   90.8772   12.8424 C.2     1  UNL1        0.4051
      6 O          62.8306   90.2228   14.0860 O.2     1  UNL1       -0.2262
      7 O          64.5092   91.8319   12.9272 O.3     1  UNL1       -0.4375
      8 C          65.8794   93.3491   10.7941 C.ar    1  UNL1        0.0139
      9 C          67.0349   92.7513   10.0476 C.ar    1  UNL1        0.0014
     10 C          67.8801   93.6141    9.1581 C.ar    1  UNL1        0.0294
     11 C          67.5698   95.0747    9.0152 C.ar    1  UNL1        0.1401
     12 F          68.4151   95.9375    8.1257 F       1  UNL1       -0.2042
     13 C          66.4143   95.6725    9.7618 C.ar    1  UNL1        0.0294
     14 C          65.5691   94.8097   10.6513 C.ar    1  UNL1        0.0014
     15 C          61.5728   89.6220   11.4295 C.3     1  UNL1        0.1011
     16 C          60.1723   90.1465   11.3121 C.3     1  UNL1        0.0265
     17 C          61.8194   88.1428   11.4621 C.ar    1  UNL1       -0.0042
     18 C          60.9920   87.2255   10.6114 C.ar    1  UNL1       -0.0027
     19 C          61.2385   85.7463   10.6440 C.ar    1  UNL1       -0.0002
     20 C          62.3127   85.1843   11.5275 C.ar    1  UNL1        0.0021
     21 C          63.1402   86.1017   12.3784 C.ar    1  UNL1       -0.0002
     22 C          62.8935   87.5809   12.3457 C.ar    1  UNL1       -0.0027
     23 C          62.5593   83.7052   11.5603 C.ar    1  UNL1        0.0276
     24 C          62.1395   82.9010   12.7548 C.ar    1  UNL1        0.0045
     25 C          62.3861   81.4219   12.7876 C.ar    1  UNL1        0.0298
     26 C          63.0526   80.7467   11.6257 C.ar    1  UNL1        0.1424
     27 F          63.2992   79.2675   11.6585 F       1  UNL1       -0.2041
     28 C          63.4725   81.5508   10.4311 C.ar    1  UNL1        0.0592
     29 C          63.2258   83.0300   10.3984 C.ar    1  UNL1        0.1423
     30 F          63.6457   83.8341    9.2037 F       1  UNL1       -0.2041
     31 C          65.9566   93.0864   12.7030 C.3     1  UNL1        0.0658
     32 C          65.8921   92.6336   14.1315 C.3     1  UNL1        0.0949
     33 C          70.2926   94.3084   16.3294 C.3     1  UNL1        0.1122
     34 N          68.7939   94.2565   16.2986 N.am    1  UNL1       -0.2872
     35 C          68.0924   93.4710   15.2305 C.2     1  UNL1        0.3008
     36 O          68.8897   92.7373   14.1932 O.2     1  UNL1       -0.2528
     37 N          66.5936   93.4192   15.1997 N.am    1  UNL1       -0.2888
     38 H          68.2706   94.7380   16.9794 H       1  UNL1        0.1510
     39 H          66.0703   93.9007   15.8805 H       1  UNL1        0.1510
@<TRIPOS>BOND
     1    33    34    1
     2    34    35   am
     3    35    36    2
     4    35    37   am
     5    37    32    1
     6    32    31    1
     7     1    31    1
     8     1     8    1
     9     8     9   ar
    10     9    10   ar
    11    10    11   ar
    12    11    12    1
    13    11    13   ar
    14    13    14   ar
    15     1     2    1
    16     2     3    1
    17     3     4    1
    18     4    15    1
    19    15    16    1
    20    15    17    1
    21    17    18   ar
    22    18    19   ar
    23    19    20   ar
    24    20    23    1
    25    23    24   ar
    26    24    25   ar
    27    25    26   ar
    28    26    27    1
    29    26    28   ar
    30    28    29   ar
    31    29    30    1
    32    20    21   ar
    33    21    22   ar
    34     4     5   am
    35     5     6    2
    36     5     7    1
    37     7     1    1
    38    14     8   ar
    39    22    17   ar
    40    29    23   ar
    41    34    38    1
    42    37    39    1
@<TRIPOS>MOLECULE
*****
 39 42 0 0 0
SMALL
GASTEIGER

@<TRIPOS>ATOM
      1 C          63.0465   85.4708   12.7078 C.3     1  UNL1        0.1594
      2 C          63.7274   85.5885   14.0392 C.3     1  UNL1        0.0661
      3 C          64.0800   86.9407   14.5843 C.3     1  UNL1        0.1009
      4 N          63.7518   88.1753   13.7979 N.am    1  UNL1       -0.2438
      5 C          63.0710   88.0575   12.4666 C.2     1  UNL1        0.4051
      6 O          62.7428   89.2921   11.6802 O.2     1  UNL1       -0.2262
      7 O          62.7183   86.7053   11.9215 O.3     1  UNL1       -0.4375
      8 C          63.1508   84.0204   13.0762 C.ar    1  UNL1        0.0139
      9 C          62.2737   83.4553   14.1538 C.ar    1  UNL1        0.0014
     10 C          62.3781   82.0050   14.5221 C.ar    1  UNL1        0.0294
     11 C          63.3595   81.1198   13.8128 C.ar    1  UNL1        0.1401
     12 F          63.4638   79.6694   14.1811 F       1  UNL1       -0.2042
     13 C          64.2366   81.6849   12.7351 C.ar    1  UNL1        0.0294
     14 C          64.1323   83.1352   12.3669 C.ar    1  UNL1        0.0014
     15 C          64.1045   89.5275   14.3430 C.3     1  UNL1        0.1011
     16 C          63.8793   89.8332   15.7942 C.3     1  UNL1        0.0265
     17 C          64.6824   90.5739   13.4370 C.ar    1  UNL1       -0.0042
     18 C          66.0042   91.2028   13.7646 C.ar    1  UNL1       -0.0027
     19 C          66.5820   92.2492   12.8586 C.ar    1  UNL1       -0.0002
     20 C          65.8380   92.6670   11.6248 C.ar    1  UNL1        0.0021
     21 C          64.5161   92.0382   11.2972 C.ar    1  UNL1       -0.0002
     22 C          63.9383   90.9917   12.2033 C.ar    1  UNL1       -0.0027
     23 C          66.4158   93.7134   10.7188 C.ar    1  UNL1        0.0276
     24 C          65.9994   95.1468   10.8671 C.ar    1  UNL1        0.0045
     25 C          66.5771   96.1933    9.9611 C.ar    1  UNL1        0.0298
     26 C          67.5715   95.8065    8.9067 C.ar    1  UNL1        0.1424
     27 F          68.1492   96.8530    8.0006 F       1  UNL1       -0.2041
     28 C          67.9880   94.3731    8.7583 C.ar    1  UNL1        0.0592
     29 C          67.4102   93.3266    9.6644 C.ar    1  UNL1        0.1423
     30 F          67.8267   91.8933    9.5161 F       1  UNL1       -0.2041
     31 C          62.4019   84.8494   11.5044 C.3     1  UNL1        0.0658
     32 C          62.4977   85.5258   10.1690 C.3     1  UNL1        0.0949
     33 C          58.9426   88.1598    7.4444 C.3     1  UNL1        0.1122
     34 N          59.5364   86.8549    7.8855 N.am    1  UNL1       -0.2872
     35 C          60.7201   86.8428    8.8067 C.2     1  UNL1        0.3008
     36 O          61.3100   88.1357    9.2869 O.2     1  UNL1       -0.2528
     37 N          61.3139   85.5379    9.2478 N.am    1  UNL1       -0.2888
     38 H          59.1492   86.0063    7.5703 H       1  UNL1        0.1510
     39 H          60.9267   84.6893    8.9326 H       1  UNL1        0.1510
@<TRIPOS>BOND
     1    33    34    1
     2    34    35   am
     3    35    36    2
     4    35    37   am
     5    37    32    1
     6    32    31    1
     7     1    31    1
     8     1     8    1
     9     8     9   ar
    10     9    10   ar
    11    10    11   ar
    12    11    12    1
    13    11    13   ar
    14    13    14   ar
    15     1     2    1
    16     2     3    1
    17     3     4    1
    18     4    15    1
    19    15    16    1
    20    15    17    1
    21    17    18   ar
    22    18    19   ar
    23    19    20   ar
    24    20    23    1
    25    23    24   ar
    26    24    25   ar
    27    25    26   ar
    28    26    27    1
    29    26    28   ar
    30    28    29   ar
    31    29    30    1
    32    20    21   ar
    33    21    22   ar
    34     4     5   am
    35     5     6    2
    36     5     7    1
    37     7     1    1
    38    14     8   ar
    39    22    17   ar
    40    29    23   ar
    41    34    38    1
    42    37    39    1
@<TRIPOS>MOLECULE
*****
 39 42 0 0 0
SMALL
GASTEIGER

@<TRIPOS>ATOM
      1 C          63.5992   84.9424   12.5039 C.3     1  UNL1        0.1594
      2 C          62.6276   85.3046   11.4201 C.3     1  UNL1        0.0661
      3 C          62.1119   86.7092   11.3139 C.3     1  UNL1        0.1009
      4 N          62.5678   87.7515   12.2916 N.am    1  UNL1       -0.2438
      5 C          63.5394   87.3893   13.3754 C.2     1  UNL1        0.4051
      6 O          63.9953   88.4316   14.3530 O.2     1  UNL1       -0.2262
      7 O          64.0551   85.9847   13.4816 O.3     1  UNL1       -0.4375
      8 C          63.4646   83.6141   11.8202 C.ar    1  UNL1        0.0139
      9 C          64.2210   83.3422   10.5538 C.ar    1  UNL1        0.0014
     10 C          64.0863   82.0139    9.8702 C.ar    1  UNL1        0.0294
     11 C          63.1952   80.9574   10.4530 C.ar    1  UNL1        0.1401
     12 F          63.0605   79.6290    9.7693 F       1  UNL1       -0.2042
     13 C          62.4387   81.2292   11.7194 C.ar    1  UNL1        0.0294
     14 C          62.5734   82.5575   12.4030 C.ar    1  UNL1        0.0014
     15 C          62.0520   89.1560   12.1853 C.3     1  UNL1        0.1011
     16 C          60.6271   89.4607   12.5417 C.3     1  UNL1        0.0265
     17 C          62.9610   90.2558   11.7228 C.ar    1  UNL1       -0.0042
     18 C          63.9075   90.9032   12.6898 C.ar    1  UNL1       -0.0027
     19 C          64.8166   92.0030   12.2272 C.ar    1  UNL1       -0.0002
     20 C          64.7792   92.4556   10.7976 C.ar    1  UNL1        0.0021
     21 C          63.8326   91.8082    9.8305 C.ar    1  UNL1       -0.0002
     22 C          62.9236   90.7084   10.2931 C.ar    1  UNL1       -0.0027
     23 C          65.6881   93.5553   10.3350 C.ar    1  UNL1        0.0276
     24 C          65.2420   94.9846   10.4244 C.ar    1  UNL1        0.0045
     25 C          66.1509   96.0845    9.9618 C.ar    1  UNL1        0.0298
     26 C          67.5062   95.7551    9.4097 C.ar    1  UNL1        0.1424
     27 F          68.4152   96.8549    8.9471 F       1  UNL1       -0.2041
     28 C          67.9525   94.3258    9.3202 C.ar    1  UNL1        0.0592
     29 C          67.0434   93.2259    9.7829 C.ar    1  UNL1        0.1423
     30 F          67.4897   91.7966    9.6934 F       1  UNL1       -0.2041
     31 C          64.5241   84.1189   13.3503 C.3     1  UNL1        0.0658
     32 C          64.1173   83.7228   14.7387 C.3     1  UNL1        0.0949
     33 C          62.3662   87.0688   18.3076 C.3     1  UNL1        0.1122
     34 N          63.5022   86.3219   17.6740 N.am    1  UNL1       -0.2872
     35 C          63.2417   85.3958   16.5231 C.2     1  UNL1        0.3008
     36 O          61.8451   85.2166   16.0059 O.2     1  UNL1       -0.2528
     37 N          64.3778   84.6489   15.8895 N.am    1  UNL1       -0.2888
     38 H          64.4188   86.4396   18.0135 H       1  UNL1        0.1510
     39 H          65.2944   84.7666   16.2290 H       1  UNL1        0.1510
@<TRIPOS>BOND
     1    33    34    1
     2    34    35   am
     3    35    36    2
     4    35    37   am
     5    37    32    1
     6    32    31    1
     7     1    31    1
     8     1     8    1
     9     8     9   ar
    10     9    10   ar
    11    10    11   ar
    12    11    12    1
    13    11    13   ar
    14    13    14   ar
    15     1     2    1
    16     2     3    1
    17     3     4    1
    18     4    15    1
    19    15    16    1
    20    15    17    1
    21    17    18   ar
    22    18    19   ar
    23    19    20   ar
    24    20    23    1
    25    23    24   ar
    26    24    25   ar
    27    25    26   ar
    28    26    27    1
    29    26    28   ar
    30    28    29   ar
    31    29    30    1
    32    20    21   ar
    33    21    22   ar
    34     4     5   am
    35     5     6    2
    36     5     7    1
    37     7     1    1
    38    14     8   ar
    39    22    17   ar
    40    29    23   ar
    41    34    38    1
    42    37    39    1
@<TRIPOS>MOLECULE
*****
 39 42 0 0 0
SMALL
GASTEIGER

@<TRIPOS>ATOM
      1 C          62.8383   85.9865   12.6830 C.3     1  UNL1        0.1594
      2 C          63.8151   86.1110   13.8145 C.3     1  UNL1        0.0661
      3 C          64.2440   87.4677   14.2892 C.3     1  UNL1        0.1009
      4 N          63.6960   88.6999   13.6325 N.am    1  UNL1       -0.2438
      5 C          62.7192   88.5754   12.5010 C.2     1  UNL1        0.4051
      6 O          62.1712   89.8077   11.8442 O.2     1  UNL1       -0.2262
      7 O          62.2903   87.2187   12.0263 O.3     1  UNL1       -0.4375
      8 C          63.0756   84.5360   12.9830 C.ar    1  UNL1        0.0139
      9 C          64.0101   83.7358   12.1249 C.ar    1  UNL1        0.0014
     10 C          64.2474   82.2855   12.4249 C.ar    1  UNL1        0.0294
     11 C          63.5502   81.6353   13.5830 C.ar    1  UNL1        0.1401
     12 F          63.7875   80.1848   13.8829 F       1  UNL1       -0.2042
     13 C          62.6156   82.4354   14.4410 C.ar    1  UNL1        0.0294
     14 C          62.3784   83.8858   14.1411 C.ar    1  UNL1        0.0014
     15 C          64.1249   90.0566   14.1072 C.3     1  UNL1        0.1011
     16 C          63.9367   90.4424   15.5446 C.3     1  UNL1        0.0265
     17 C          64.7419   91.0276   13.1447 C.ar    1  UNL1       -0.0042
     18 C          64.1190   91.2472   11.7980 C.ar    1  UNL1       -0.0027
     19 C          64.7361   92.2182   10.8355 C.ar    1  UNL1       -0.0002
     20 C          65.9762   92.9696   11.2198 C.ar    1  UNL1        0.0021
     21 C          66.5992   92.7500   12.5666 C.ar    1  UNL1       -0.0002
     22 C          65.9820   91.7790   13.5290 C.ar    1  UNL1       -0.0027
     23 C          66.5933   93.9405   10.2574 C.ar    1  UNL1        0.0276
     24 C          67.3416   93.4360    9.0593 C.ar    1  UNL1        0.0045
     25 C          67.9587   94.4069    8.0968 C.ar    1  UNL1        0.0298
     26 C          67.8276   95.8826    8.3324 C.ar    1  UNL1        0.1424
     27 F          68.4447   96.8535    7.3699 F       1  UNL1       -0.2041
     28 C          67.0793   96.3872    9.5305 C.ar    1  UNL1        0.0592
     29 C          66.4621   95.4161   10.4930 C.ar    1  UNL1        0.1423
     30 F          65.7138   95.9207   11.6911 F       1  UNL1       -0.2041
     31 C          61.9438   85.3583   11.6557 C.3     1  UNL1        0.0658
     32 C          61.7986   85.9879   10.3020 C.3     1  UNL1        0.0949
     33 C          61.9724   84.5108    5.3233 C.3     1  UNL1        0.1122
     34 N          62.6538   84.7040    6.6455 N.am    1  UNL1       -0.2872
     35 C          61.8855   85.2494    7.8127 C.2     1  UNL1        0.3008
     36 O          60.4356   85.6014    7.6576 O.2     1  UNL1       -0.2528
     37 N          62.5670   85.4426    9.1349 N.am    1  UNL1       -0.2888
     38 H          63.6054   84.4729    6.7473 H       1  UNL1        0.1510
     39 H          63.5185   85.2115    9.2366 H       1  UNL1        0.1510
@<TRIPOS>BOND
     1    33    34    1
     2    34    35   am
     3    35    36    2
     4    35    37   am
     5    37    32    1
     6    32    31    1
     7     1    31    1
     8     1     8    1
     9     8     9   ar
    10     9    10   ar
    11    10    11   ar
    12    11    12    1
    13    11    13   ar
    14    13    14   ar
    15     1     2    1
    16     2     3    1
    17     3     4    1
    18     4    15    1
    19    15    16    1
    20    15    17    1
    21    17    18   ar
    22    18    19   ar
    23    19    20   ar
    24    20    23    1
    25    23    24   ar
    26    24    25   ar
    27    25    26   ar
    28    26    27    1
    29    26    28   ar
    30    28    29   ar
    31    29    30    1
    32    20    21   ar
    33    21    22   ar
    34     4     5   am
    35     5     6    2
    36     5     7    1
    37     7     1    1
    38    14     8   ar
    39    22    17   ar
    40    29    23   ar
    41    34    38    1
    42    37    39    1
@<TRIPOS>MOLECULE
*****
 39 42 0 0 0
SMALL
GASTEIGER

@<TRIPOS>ATOM
      1 C          63.6794   85.9388   14.4648 C.3     1  UNL1        0.1594
      2 C          63.9517   86.8734   13.3236 C.3     1  UNL1        0.0661
      3 C          64.0371   88.3509   13.5682 C.3     1  UNL1        0.1009
      4 N          63.8502   88.8937   14.9541 N.am    1  UNL1       -0.2438
      5 C          63.5779   87.9591   16.0952 C.2     1  UNL1        0.4051
      6 O          63.3910   88.5019   17.4810 O.2     1  UNL1       -0.2262
      7 O          63.4925   86.4816   15.8506 O.3     1  UNL1       -0.4375
      8 C          63.7844   84.9524   13.3396 C.ar    1  UNL1        0.0139
      9 C          62.8167   85.0142   12.1952 C.ar    1  UNL1        0.0014
     10 C          62.9218   84.0278   11.0701 C.ar    1  UNL1        0.0294
     11 C          63.9945   82.9796   11.0894 C.ar    1  UNL1        0.1401
     12 F          64.0995   81.9931    9.9642 F       1  UNL1       -0.2042
     13 C          64.9623   82.9177   12.2337 C.ar    1  UNL1        0.0294
     14 C          64.8572   83.9041   13.3588 C.ar    1  UNL1        0.0014
     15 C          63.9355   90.3711   15.1986 C.3     1  UNL1        0.1011
     16 C          63.4333   90.9480   16.4890 C.3     1  UNL1        0.0265
     17 C          64.5231   91.2717   14.1529 C.ar    1  UNL1       -0.0042
     18 C          63.9142   91.3279   12.7832 C.ar    1  UNL1       -0.0027
     19 C          64.5017   92.2285   11.7375 C.ar    1  UNL1       -0.0002
     20 C          65.6984   93.0731   12.0614 C.ar    1  UNL1        0.0021
     21 C          66.3074   93.0170   13.4312 C.ar    1  UNL1       -0.0002
     22 C          65.7197   92.1163   14.4768 C.ar    1  UNL1       -0.0027
     23 C          66.2859   93.9737   11.0158 C.ar    1  UNL1        0.0276
     24 C          65.9905   95.4441   11.0403 C.ar    1  UNL1        0.0045
     25 C          66.5781   96.3448    9.9947 C.ar    1  UNL1        0.0298
     26 C          67.4612   95.7751    8.9243 C.ar    1  UNL1        0.1424
     27 F          68.0488   96.6757    7.8786 F       1  UNL1       -0.2041
     28 C          67.7567   94.3047    8.8997 C.ar    1  UNL1        0.0592
     29 C          67.1691   93.4040    9.9454 C.ar    1  UNL1        0.1423
     30 F          67.4646   91.9336    9.9208 F       1  UNL1       -0.2041
     31 C          63.4436   84.6615   15.2152 C.3     1  UNL1        0.0658
     32 C          62.0435   84.2187   15.5207 C.3     1  UNL1        0.0949
     33 C          62.1954   79.5634   13.2174 C.3     1  UNL1        0.1122
     34 N          61.4654   80.8369   13.5257 N.am    1  UNL1       -0.2872
     35 C          62.1195   81.8910   14.3691 C.2     1  UNL1        0.3008
     36 O          63.5035   81.6715   14.9040 O.2     1  UNL1       -0.2528
     37 N          61.3894   83.1646   14.6774 N.am    1  UNL1       -0.2888
     38 H          60.5570   80.9810   13.1746 H       1  UNL1        0.1510
     39 H          60.4810   83.3086   14.3262 H       1  UNL1        0.1510
@<TRIPOS>BOND
     1    33    34    1
     2    34    35   am
     3    35    36    2
     4    35    37   am
     5    37    32    1
     6    32    31    1
     7     1    31    1
     8     1     8    1
     9     8     9   ar
    10     9    10   ar
    11    10    11   ar
    12    11    12    1
    13    11    13   ar
    14    13    14   ar
    15     1     2    1
    16     2     3    1
    17     3     4    1
    18     4    15    1
    19    15    16    1
    20    15    17    1
    21    17    18   ar
    22    18    19   ar
    23    19    20   ar
    24    20    23    1
    25    23    24   ar
    26    24    25   ar
    27    25    26   ar
    28    26    27    1
    29    26    28   ar
    30    28    29   ar
    31    29    30    1
    32    20    21   ar
    33    21    22   ar
    34     4     5   am
    35     5     6    2
    36     5     7    1
    37     7     1    1
    38    14     8   ar
    39    22    17   ar
    40    29    23   ar
    41    34    38    1
    42    37    39    1
@<TRIPOS>MOLECULE
*****
 39 42 0 0 0
SMALL
GASTEIGER

@<TRIPOS>ATOM
      1 C          65.5664   92.0915   12.7699 C.3     1  UNL1        0.1594
      2 C          65.1735   90.9132   13.6108 C.3     1  UNL1        0.0661
      3 C          64.0499   90.0209   13.1735 C.3     1  UNL1        0.1009
      4 N          63.3192   90.3069   11.8951 N.am    1  UNL1       -0.2438
      5 C          63.7121   91.4852   11.0541 C.2     1  UNL1        0.4051
      6 O          62.9813   91.7712    9.7757 O.2     1  UNL1       -0.2262
      7 O          64.8357   92.3775   11.4914 O.3     1  UNL1       -0.4375
      8 C          66.5525   92.2316   13.8915 C.ar    1  UNL1        0.0139
      9 C          68.0112   91.9858   13.6428 C.ar    1  UNL1        0.0014
     10 C          68.9972   92.1259   14.7644 C.ar    1  UNL1        0.0294
     11 C          68.5246   92.5119   16.1347 C.ar    1  UNL1        0.1401
     12 F          69.5108   92.6521   17.2563 F       1  UNL1       -0.2042
     13 C          67.0660   92.7577   16.3834 C.ar    1  UNL1        0.0294
     14 C          66.0799   92.6176   15.2618 C.ar    1  UNL1        0.0014
     15 C          62.1956   89.4146   11.4577 C.3     1  UNL1        0.1011
     16 C          60.9730   90.0057   10.8203 C.3     1  UNL1        0.0265
     17 C          62.2944   87.9313   11.6576 C.ar    1  UNL1       -0.0042
     18 C          61.4481   87.0055   10.8351 C.ar    1  UNL1       -0.0027
     19 C          61.5470   85.5222   11.0351 C.ar    1  UNL1       -0.0002
     20 C          62.4922   84.9646   12.0577 C.ar    1  UNL1        0.0021
     21 C          63.3386   85.8905   12.8803 C.ar    1  UNL1       -0.0002
     22 C          63.2397   87.3738   12.6802 C.ar    1  UNL1       -0.0027
     23 C          62.5911   83.4814   12.2577 C.ar    1  UNL1        0.0276
     24 C          62.9744   82.5939   11.1108 C.ar    1  UNL1        0.0045
     25 C          63.0734   81.1106   11.3108 C.ar    1  UNL1        0.0298
     26 C          62.7890   80.5147   12.6577 C.ar    1  UNL1        0.1424
     27 F          62.8879   79.0315   12.8577 F       1  UNL1       -0.2041
     28 C          62.4057   81.4022   13.8046 C.ar    1  UNL1        0.0592
     29 C          62.3068   82.8856   13.6046 C.ar    1  UNL1        0.1423
     30 F          61.9235   83.7731   14.7515 F       1  UNL1       -0.2041
     31 C          66.3018   93.3184   12.3184 C.3     1  UNL1        0.0658
     32 C          65.7920   94.1117   11.1519 C.3     1  UNL1        0.0949
     33 C          69.4914   92.0578    8.1361 C.3     1  UNL1        0.1122
     34 N          68.2962   92.9489    8.3011 N.am    1  UNL1       -0.2872
     35 C          67.6417   93.0847    9.6440 C.2     1  UNL1        0.3008
     36 O          68.1826   92.3295   10.8218 O.2     1  UNL1       -0.2528
     37 N          66.4464   93.9758    9.8090 N.am    1  UNL1       -0.2888
     38 H          67.9412   93.4445    7.5281 H       1  UNL1        0.1510
     39 H          66.0915   94.4715    9.0360 H       1  UNL1        0.1510
@<TRIPOS>BOND
     1    33    34    1
     2    34    35   am
     3    35    36    2
     4    35    37   am
     5    37    32    1
     6    32    31    1
     7     1    31    1
     8     1     8    1
     9     8     9   ar
    10     9    10   ar
    11    10    11   ar
    12    11    12    1
    13    11    13   ar
    14    13    14   ar
    15     1     2    1
    16     2     3    1
    17     3     4    1
    18     4    15    1
    19    15    16    1
    20    15    17    1
    21    17    18   ar
    22    18    19   ar
    23    19    20   ar
    24    20    23    1
    25    23    24   ar
    26    24    25   ar
    27    25    26   ar
    28    26    27    1
    29    26    28   ar
    30    28    29   ar
    31    29    30    1
    32    20    21   ar
    33    21    22   ar
    34     4     5   am
    35     5     6    2
    36     5     7    1
    37     7     1    1
    38    14     8   ar
    39    22    17   ar
    40    29    23   ar
    41    34    38    1
    42    37    39    1
@<TRIPOS>MOLECULE
*****
 39 42 0 0 0
SMALL
GASTEIGER

@<TRIPOS>ATOM
      1 C          64.8885   92.5974   11.5807 C.3     1  UNL1        0.1594
      2 C          64.4518   92.3455   10.1680 C.3     1  UNL1        0.0661
      3 C          63.3832   91.3322    9.8827 C.3     1  UNL1        0.1009
      4 N          62.7515   90.5707   11.0101 N.am    1  UNL1       -0.2438
      5 C          63.1882   90.8226   12.4228 C.2     1  UNL1        0.4051
      6 O          62.5565   90.0611   13.5503 O.2     1  UNL1       -0.2262
      7 O          64.2568   91.8359   12.7081 O.3     1  UNL1       -0.4375
      8 C          65.7795   93.5628   10.8565 C.ar    1  UNL1        0.0139
      9 C          65.6400   95.0368   11.0965 C.ar    1  UNL1        0.0014
     10 C          66.5309   96.0021   10.3724 C.ar    1  UNL1        0.0294
     11 C          67.5613   95.4934    9.4083 C.ar    1  UNL1        0.1401
     12 F          68.4523   96.4588    8.6841 F       1  UNL1       -0.2042
     13 C          67.7008   94.0193    9.1683 C.ar    1  UNL1        0.0294
     14 C          66.8098   93.0540    9.8924 C.ar    1  UNL1        0.0014
     15 C          61.6829   89.5574   10.7248 C.3     1  UNL1        0.1011
     16 C          60.3942   89.9856   10.0875 C.3     1  UNL1        0.0265
     17 C          61.9030   88.1160   11.0767 C.ar    1  UNL1       -0.0042
     18 C          61.0964   87.0472   10.4007 C.ar    1  UNL1       -0.0027
     19 C          61.3165   85.6058   10.7526 C.ar    1  UNL1       -0.0002
     20 C          62.3433   85.2331   11.7806 C.ar    1  UNL1        0.0021
     21 C          63.1500   86.3019   12.4567 C.ar    1  UNL1       -0.0002
     22 C          62.9298   87.7433   12.1047 C.ar    1  UNL1       -0.0027
     23 C          62.5635   83.7918   12.1325 C.ar    1  UNL1        0.0276
     24 C          62.9525   82.8105   11.0669 C.ar    1  UNL1        0.0045
     25 C          63.1727   81.3691   11.4188 C.ar    1  UNL1        0.0298
     26 C          63.0038   80.9089   12.8364 C.ar    1  UNL1        0.1424
     27 F          63.2240   79.4675   13.1883 F       1  UNL1       -0.2041
     28 C          62.6147   81.8902   13.9022 C.ar    1  UNL1        0.0592
     29 C          62.3946   83.3316   13.5502 C.ar    1  UNL1        0.1423
     30 F          62.0055   84.3129   14.6159 F       1  UNL1       -0.2041
     31 C          65.6347   93.1845   12.7419 C.3     1  UNL1        0.0658
     32 C          65.9767   92.3274   13.9243 C.3     1  UNL1        0.0949
     33 C          63.1725   89.1915   16.9743 C.3     1  UNL1        0.1122
     34 N          63.5774   90.5733   16.5543 N.am    1  UNL1       -0.2872
     35 C          64.5747   90.7594   15.4493 C.2     1  UNL1        0.3008
     36 O          65.1669   89.5635   14.7644 O.2     1  UNL1       -0.2528
     37 N          64.9795   92.1413   15.0294 N.am    1  UNL1       -0.2888
     38 H          63.1887   91.3582   17.0039 H       1  UNL1        0.1510
     39 H          64.5908   92.9262   15.4789 H       1  UNL1        0.1510
@<TRIPOS>BOND
     1    33    34    1
     2    34    35   am
     3    35    36    2
     4    35    37   am
     5    37    32    1
     6    32    31    1
     7     1    31    1
     8     1     8    1
     9     8     9   ar
    10     9    10   ar
    11    10    11   ar
    12    11    12    1
    13    11    13   ar
    14    13    14   ar
    15     1     2    1
    16     2     3    1
    17     3     4    1
    18     4    15    1
    19    15    16    1
    20    15    17    1
    21    17    18   ar
    22    18    19   ar
    23    19    20   ar
    24    20    23    1
    25    23    24   ar
    26    24    25   ar
    27    25    26   ar
    28    26    27    1
    29    26    28   ar
    30    28    29   ar
    31    29    30    1
    32    20    21   ar
    33    21    22   ar
    34     4     5   am
    35     5     6    2
    36     5     7    1
    37     7     1    1
    38    14     8   ar
    39    22    17   ar
    40    29    23   ar
    41    34    38    1
    42    37    39    1
@<TRIPOS>MOLECULE
*****
 39 42 0 0 0
SMALL
GASTEIGER

@<TRIPOS>ATOM
      1 C          62.4491   85.6408    9.2741 C.3     1  UNL1        0.1594
      2 C          61.7513   86.8669    8.7646 C.3     1  UNL1        0.0661
      3 C          61.5434   88.0432    9.6718 C.3     1  UNL1        0.1009
      4 N          62.0335   87.9934   11.0886 N.am    1  UNL1       -0.2438
      5 C          62.7313   86.7674   11.5982 C.2     1  UNL1        0.4051
      6 O          63.2214   86.7176   13.0151 O.2     1  UNL1       -0.2262
      7 O          62.9392   85.5910   10.6910 O.3     1  UNL1       -0.4375
      8 C          62.1675   85.2132    7.8642 C.ar    1  UNL1        0.0139
      9 C          60.7551   85.1714    7.3611 C.ar    1  UNL1        0.0014
     10 C          60.4735   84.7438    5.9512 C.ar    1  UNL1        0.0294
     11 C          61.6044   84.3580    5.0444 C.ar    1  UNL1        0.1401
     12 F          61.3227   83.9303    3.6345 F       1  UNL1       -0.2042
     13 C          63.0168   84.3997    5.5475 C.ar    1  UNL1        0.0294
     14 C          63.2984   84.8274    6.9574 C.ar    1  UNL1        0.0014
     15 C          61.8256   89.1697   11.9959 C.3     1  UNL1        0.1011
     16 C          60.4370   89.6586   12.2839 C.3     1  UNL1        0.0265
     17 C          63.0063   89.8572   12.6151 C.ar    1  UNL1       -0.0042
     18 C          63.6705   90.9966   11.9006 C.ar    1  UNL1       -0.0027
     19 C          64.8511   91.6841   12.5198 C.ar    1  UNL1       -0.0002
     20 C          65.3677   91.2321   13.8536 C.ar    1  UNL1        0.0021
     21 C          64.7035   90.0926   14.5681 C.ar    1  UNL1       -0.0002
     22 C          63.5228   89.4052   13.9488 C.ar    1  UNL1       -0.0027
     23 C          66.5482   91.9195   14.4728 C.ar    1  UNL1        0.0276
     24 C          67.8690   91.9282   13.7618 C.ar    1  UNL1        0.0045
     25 C          69.0497   92.6156   14.3810 C.ar    1  UNL1        0.0298
     26 C          68.9096   93.2944   15.7113 C.ar    1  UNL1        0.1424
     27 F          70.0903   93.9818   16.3305 F       1  UNL1       -0.2041
     28 C          67.5889   93.2857   16.4223 C.ar    1  UNL1        0.0592
     29 C          66.4082   92.5983   15.8031 C.ar    1  UNL1        0.1423
     30 F          65.0875   92.5897   16.5141 F       1  UNL1       -0.2041
     31 C          63.0492   84.2662    9.2940 C.3     1  UNL1        0.0658
     32 C          63.7965   83.7916   10.5049 C.3     1  UNL1        0.0949
     33 C          61.9654   80.5298   14.1116 C.3     1  UNL1        0.1122
     34 N          62.6799   80.7627   12.8134 N.am    1  UNL1       -0.2872
     35 C          62.8810   82.1607   12.3082 C.2     1  UNL1        0.3008
     36 O          62.3675   83.3258   13.1013 O.2     1  UNL1       -0.2528
     37 N          63.5955   82.3935   11.0101 N.am    1  UNL1       -0.2888
     38 H          63.0169   79.9980   12.2929 H       1  UNL1        0.1510
     39 H          63.9324   81.6288   10.4896 H       1  UNL1        0.1510
@<TRIPOS>BOND
     1    33    34    1
     2    34    35   am
     3    35    36    2
     4    35    37   am
     5    37    32    1
     6    32    31    1
     7     1    31    1
     8     1     8    1
     9     8     9   ar
    10     9    10   ar
    11    10    11   ar
    12    11    12    1
    13    11    13   ar
    14    13    14   ar
    15     1     2    1
    16     2     3    1
    17     3     4    1
    18     4    15    1
    19    15    16    1
    20    15    17    1
    21    17    18   ar
    22    18    19   ar
    23    19    20   ar
    24    20    23    1
    25    23    24   ar
    26    24    25   ar
    27    25    26   ar
    28    26    27    1
    29    26    28   ar
    30    28    29   ar
    31    29    30    1
    32    20    21   ar
    33    21    22   ar
    34     4     5   am
    35     5     6    2
    36     5     7    1
    37     7     1    1
    38    14     8   ar
    39    22    17   ar
    40    29    23   ar
    41    34    38    1
    42    37    39    1
