@<TRIPOS>MOLECULE
*****
 26 29 0 0 0
SMALL
GASTEIGER

@<TRIPOS>ATOM
      1 O          62.8512   90.1286   14.4798 O.2     1  UNL1       -0.2692
      2 C          63.1634   90.4020   13.0383 C.2     1  UNL1        0.2571
      3 N          64.3306   91.2714   12.6755 N.am    1  UNL1       -0.2788
      4 H          64.5354   91.4509   11.7294 H       1  UNL1        0.1552
      5 C          65.1857   91.8675   13.7542 C.ar    1  UNL1        0.0669
      6 C          64.9612   91.4844   15.1869 C.ar    1  UNL1        0.0162
      7 C          65.8162   92.0804   16.2656 C.ar    1  UNL1        0.0014
      8 C          66.8959   93.0596   15.9115 C.ar    1  UNL1        0.0016
      9 C          67.1204   93.4428   14.4788 C.ar    1  UNL1        0.0188
     10 C          66.2654   92.8468   13.4001 C.ar    1  UNL1        0.0789
     11 N          66.4900   93.2300   11.9674 N.ar    1  UNL1       -0.2852
     12 C          66.0319   94.4990   11.3119 C.ar    1  UNL1        0.1023
     13 C          66.4709   94.4647    9.8779 C.ar    1  UNL1        0.1196
     14 N          67.2003   93.1745    9.6472 N.ar    1  UNL1       -0.2220
     15 C          67.2120   92.4114   10.9385 C.ar    1  UNL1        0.1829
     16 C          62.3082   89.8059   11.9596 C.ar    1  UNL1        0.1035
     17 C          60.9741   90.3207   11.5069 C.ar    1  UNL1        0.1105
     18 N          60.4784   89.4234   10.4118 N.ar    1  UNL1       -0.2366
     19 C          61.5062   88.3540   10.1878 C.ar    1  UNL1        0.1109
     20 S          62.6371   88.5905   11.1445 S.2     1  UNL1       -0.0619
     21 C          61.4186   87.2433    9.1836 C.ar    1  UNL1        0.0238
     22 C          60.1406   87.0090    8.4340 C.ar    1  UNL1        0.0020
     23 C          60.0530   85.8983    7.4298 C.ar    1  UNL1        0.0001
     24 C          61.2433   85.0217    7.1751 C.ar    1  UNL1        0.0000
     25 C          62.5213   85.2560    7.9247 C.ar    1  UNL1        0.0001
     26 C          62.6089   86.3668    8.9290 C.ar    1  UNL1        0.0020
@<TRIPOS>BOND
     1     1     2    2
     2     2     3   am
     3     3     5    1
     4     5     6   ar
     5     6     7   ar
     6     7     8   ar
     7     8     9   ar
     8     9    10   ar
     9    10    11    1
    10    11    12   ar
    11    12    13   ar
    12    13    14   ar
    13    14    15   ar
    14     2    16    1
    15    16    17   ar
    16    17    18   ar
    17    18    19   ar
    18    19    21    1
    19    21    22   ar
    20    22    23   ar
    21    23    24   ar
    22    24    25   ar
    23    25    26   ar
    24    19    20   ar
    25    10     5   ar
    26    15    11   ar
    27    20    16   ar
    28    26    21   ar
    29     3     4    1
@<TRIPOS>MOLECULE
*****
 26 29 0 0 0
SMALL
GASTEIGER

@<TRIPOS>ATOM
      1 O          61.1483   86.4826   11.5742 O.2     1  UNL1       -0.2692
      2 C          62.4613   86.9484   12.1301 C.2     1  UNL1        0.2571
      3 N          63.3879   85.9684   12.7866 N.am    1  UNL1       -0.2788
      4 H          64.2496   86.2741   13.1514 H       1  UNL1        0.1552
      5 C          63.0014   84.5225   12.8873 C.ar    1  UNL1        0.0669
      6 C          63.0541   83.6457   11.6714 C.ar    1  UNL1        0.0162
      7 C          62.6677   82.1998   11.7720 C.ar    1  UNL1        0.0014
      8 C          62.2284   81.6308   13.0885 C.ar    1  UNL1        0.0016
      9 C          62.1757   82.5076   14.3044 C.ar    1  UNL1        0.0188
     10 C          62.5621   83.9535   14.2038 C.ar    1  UNL1        0.0789
     11 N          62.5093   84.8303   15.4197 N.ar    1  UNL1       -0.2852
     12 C          63.6909   85.3540   16.1810 C.ar    1  UNL1        0.1023
     13 C          63.1776   86.1847   17.3196 C.ar    1  UNL1        0.1196
     14 N          61.6787   86.1745   17.2619 N.ar    1  UNL1       -0.2220
     15 C          61.2657   85.3374   16.0877 C.ar    1  UNL1        0.1829
     16 C          62.8478   88.3943   12.0294 C.ar    1  UNL1        0.1035
     17 C          62.2878   89.3910   11.0583 C.ar    1  UNL1        0.1105
     18 N          62.9560   90.7101   11.3109 N.ar    1  UNL1       -0.2366
     19 C          63.9290   90.5285   12.4381 C.ar    1  UNL1        0.1109
     20 S          63.8621   89.0973   12.8821 S.2     1  UNL1       -0.0619
     21 C          64.8134   91.5914   13.0191 C.ar    1  UNL1        0.0238
     22 C          65.3396   92.6904   12.1442 C.ar    1  UNL1        0.0020
     23 C          66.2240   93.7533   12.7252 C.ar    1  UNL1        0.0001
     24 C          66.5825   93.7175   14.1813 C.ar    1  UNL1        0.0000
     25 C          66.0564   92.6185   15.0564 C.ar    1  UNL1        0.0001
     26 C          65.1719   91.5555   14.4752 C.ar    1  UNL1        0.0020
@<TRIPOS>BOND
     1     1     2    2
     2     2     3   am
     3     3     5    1
     4     5     6   ar
     5     6     7   ar
     6     7     8   ar
     7     8     9   ar
     8     9    10   ar
     9    10    11    1
    10    11    12   ar
    11    12    13   ar
    12    13    14   ar
    13    14    15   ar
    14     2    16    1
    15    16    17   ar
    16    17    18   ar
    17    18    19   ar
    18    19    21    1
    19    21    22   ar
    20    22    23   ar
    21    23    24   ar
    22    24    25   ar
    23    25    26   ar
    24    19    20   ar
    25    10     5   ar
    26    15    11   ar
    27    20    16   ar
    28    26    21   ar
    29     3     4    1
@<TRIPOS>MOLECULE
*****
 26 29 0 0 0
SMALL
GASTEIGER

@<TRIPOS>ATOM
      1 O          60.4179   89.7183   12.2931 O.2     1  UNL1       -0.2692
      2 C          61.8856   89.4440   12.1493 C.2     1  UNL1        0.2571
      3 N          62.4006   88.7373   10.9307 N.am    1  UNL1       -0.2788
      4 H          63.3639   88.5573   10.8363 H       1  UNL1        0.1552
      5 C          61.4479   88.3047    9.8557 C.ar    1  UNL1        0.0669
      6 C          60.6722   89.3306    9.0838 C.ar    1  UNL1        0.0162
      7 C          59.7196   88.8981    8.0090 C.ar    1  UNL1        0.0014
      8 C          59.5427   87.4398    7.7060 C.ar    1  UNL1        0.0016
      9 C          60.3184   86.4139    8.4779 C.ar    1  UNL1        0.0188
     10 C          61.2710   86.8464    9.5527 C.ar    1  UNL1        0.0789
     11 N          62.0468   85.8205   10.3246 N.ar    1  UNL1       -0.2852
     12 C          61.9885   85.6030   11.8076 C.ar    1  UNL1        0.1023
     13 C          62.9227   84.4801   12.1486 C.ar    1  UNL1        0.1196
     14 N          63.5584   84.0035   10.8763 N.ar    1  UNL1       -0.2220
     15 C          63.0170   84.8319    9.7490 C.ar    1  UNL1        0.1829
     16 C          62.8383   89.8766   13.2242 C.ar    1  UNL1        0.1035
     17 C          62.6939   89.6038   14.6922 C.ar    1  UNL1        0.1105
     18 N          63.8690   90.2165   15.3951 N.ar    1  UNL1       -0.2366
     19 C          64.7394   90.8678   14.3616 C.ar    1  UNL1        0.1109
     20 S          64.1024   90.6577   13.0199 S.2     1  UNL1       -0.0619
     21 C          66.0217   91.6006   14.6237 C.ar    1  UNL1        0.0238
     22 C          66.2125   92.3402   15.9147 C.ar    1  UNL1        0.0020
     23 C          67.4948   93.0729   16.1768 C.ar    1  UNL1        0.0001
     24 C          68.5863   93.0661   15.1480 C.ar    1  UNL1        0.0000
     25 C          68.3956   92.3264   13.8569 C.ar    1  UNL1        0.0001
     26 C          67.1132   91.5937   13.5949 C.ar    1  UNL1        0.0020
@<TRIPOS>BOND
     1     1     2    2
     2     2     3   am
     3     3     5    1
     4     5     6   ar
     5     6     7   ar
     6     7     8   ar
     7     8     9   ar
     8     9    10   ar
     9    10    11    1
    10    11    12   ar
    11    12    13   ar
    12    13    14   ar
    13    14    15   ar
    14     2    16    1
    15    16    17   ar
    16    17    18   ar
    17    18    19   ar
    18    19    21    1
    19    21    22   ar
    20    22    23   ar
    21    23    24   ar
    22    24    25   ar
    23    25    26   ar
    24    19    20   ar
    25    10     5   ar
    26    15    11   ar
    27    20    16   ar
    28    26    21   ar
    29     3     4    1
@<TRIPOS>MOLECULE
*****
 26 29 0 0 0
SMALL
GASTEIGER

@<TRIPOS>ATOM
      1 O          62.8809   85.6286   16.0969 O.2     1  UNL1       -0.2692
      2 C          63.4290   86.4712   14.9836 C.2     1  UNL1        0.2571
      3 N          63.7325   85.8501   13.6525 N.am    1  UNL1       -0.2788
      4 H          64.0923   86.4031   12.9217 H       1  UNL1        0.1552
      5 C          63.4880   84.3862   13.4346 C.ar    1  UNL1        0.0669
      6 C          63.8808   83.3950   14.4897 C.ar    1  UNL1        0.0162
      7 C          63.6362   81.9312   14.2719 C.ar    1  UNL1        0.0014
      8 C          62.9989   81.4586   12.9990 C.ar    1  UNL1        0.0016
      9 C          62.6060   82.4498   11.9439 C.ar    1  UNL1        0.0188
     10 C          62.8506   83.9136   12.1617 C.ar    1  UNL1        0.0789
     11 N          62.4578   84.9047   11.1066 N.ar    1  UNL1       -0.2852
     12 C          61.4553   86.0094   11.2640 C.ar    1  UNL1        0.1023
     13 C          61.3764   86.7527    9.9635 C.ar    1  UNL1        0.1196
     14 N          62.3301   86.1074    9.0023 N.ar    1  UNL1       -0.2220
     15 C          62.9984   84.9653    9.7087 C.ar    1  UNL1        0.1829
     16 C          63.6736   87.9351   15.2014 C.ar    1  UNL1        0.1035
     17 C          63.1607   88.7533   16.3492 C.ar    1  UNL1        0.1105
     18 N          63.6441   90.1616   16.1669 N.ar    1  UNL1       -0.2366
     19 C          64.4557   90.2136   14.9065 C.ar    1  UNL1        0.1109
     20 S          64.4739   88.8375   14.3098 S.2     1  UNL1       -0.0619
     21 C          65.1306   91.4284   14.3419 C.ar    1  UNL1        0.0238
     22 C          65.9967   92.2817   15.2204 C.ar    1  UNL1        0.0020
     23 C          66.6716   93.4964   14.6558 C.ar    1  UNL1        0.0001
     24 C          66.4804   93.8580   13.2127 C.ar    1  UNL1        0.0000
     25 C          65.6142   93.0047   12.3341 C.ar    1  UNL1        0.0001
     26 C          64.9393   91.7899   12.8988 C.ar    1  UNL1        0.0020
@<TRIPOS>BOND
     1     1     2    2
     2     2     3   am
     3     3     5    1
     4     5     6   ar
     5     6     7   ar
     6     7     8   ar
     7     8     9   ar
     8     9    10   ar
     9    10    11    1
    10    11    12   ar
    11    12    13   ar
    12    13    14   ar
    13    14    15   ar
    14     2    16    1
    15    16    17   ar
    16    17    18   ar
    17    18    19   ar
    18    19    21    1
    19    21    22   ar
    20    22    23   ar
    21    23    24   ar
    22    24    25   ar
    23    25    26   ar
    24    19    20   ar
    25    10     5   ar
    26    15    11   ar
    27    20    16   ar
    28    26    21   ar
    29     3     4    1
@<TRIPOS>MOLECULE
*****
 26 29 0 0 0
SMALL
GASTEIGER

@<TRIPOS>ATOM
      1 O          63.9940   89.3393   15.1164 O.2     1  UNL1       -0.2692
      2 C          64.0637   89.5771   13.6370 C.2     1  UNL1        0.2571
      3 N          64.8741   90.7186   13.0983 N.am    1  UNL1       -0.2788
      4 H          64.9198   90.8747   12.1273 H       1  UNL1        0.1552
      5 C          65.6147   91.6224   14.0390 C.ar    1  UNL1        0.0669
      6 C          65.3179   91.5807   15.5087 C.ar    1  UNL1        0.0162
      7 C          66.0585   92.4843   16.4494 C.ar    1  UNL1        0.0014
      8 C          67.0959   93.4297   15.9203 C.ar    1  UNL1        0.0016
      9 C          67.3927   93.4714   14.4505 C.ar    1  UNL1        0.0188
     10 C          66.6521   92.5677   13.5099 C.ar    1  UNL1        0.0789
     11 N          66.9490   92.6095   12.0401 N.ar    1  UNL1       -0.2852
     12 C          68.0298   91.8433   11.3368 C.ar    1  UNL1        0.1023
     13 C          67.9659   92.1849    9.8776 C.ar    1  UNL1        0.1196
     14 N          66.8455   93.1623    9.6791 N.ar    1  UNL1       -0.2220
     15 C          66.2170   93.4247   11.0156 C.ar    1  UNL1        0.1829
     16 C          63.3231   88.6734   12.6964 C.ar    1  UNL1        0.1035
     17 C          63.3125   87.1740   12.7394 C.ar    1  UNL1        0.1105
     18 N          62.4459   86.6843   11.6171 N.ar    1  UNL1       -0.2366
     19 C          61.9210   87.8811   10.8807 C.ar    1  UNL1        0.1109
     20 S          62.4631   89.1103   11.5477 S.2     1  UNL1       -0.0619
     21 C          61.0133   87.8533    9.6869 C.ar    1  UNL1        0.0238
     22 C          60.5640   89.1380    9.0562 C.ar    1  UNL1        0.0020
     23 C          59.6564   89.1103    7.8624 C.ar    1  UNL1        0.0001
     24 C          59.1979   87.7979    7.2991 C.ar    1  UNL1        0.0000
     25 C          59.6471   86.5131    7.9297 C.ar    1  UNL1        0.0001
     26 C          60.5548   86.5409    9.1236 C.ar    1  UNL1        0.0020
@<TRIPOS>BOND
     1     1     2    2
     2     2     3   am
     3     3     5    1
     4     5     6   ar
     5     6     7   ar
     6     7     8   ar
     7     8     9   ar
     8     9    10   ar
     9    10    11    1
    10    11    12   ar
    11    12    13   ar
    12    13    14   ar
    13    14    15   ar
    14     2    16    1
    15    16    17   ar
    16    17    18   ar
    17    18    19   ar
    18    19    21    1
    19    21    22   ar
    20    22    23   ar
    21    23    24   ar
    22    24    25   ar
    23    25    26   ar
    24    19    20   ar
    25    10     5   ar
    26    15    11   ar
    27    20    16   ar
    28    26    21   ar
    29     3     4    1
@<TRIPOS>MOLECULE
*****
 26 29 0 0 0
SMALL
GASTEIGER

@<TRIPOS>ATOM
      1 O          63.6518   90.4539   16.2886 O.2     1  UNL1       -0.2692
      2 C          64.2389   89.3747   15.4280 C.2     1  UNL1        0.2571
      3 N          65.2834   89.7150   14.4067 N.am    1  UNL1       -0.2788
      4 H          65.6687   89.0067   13.8418 H       1  UNL1        0.1552
      5 C          65.7408   91.1345   14.2458 C.ar    1  UNL1        0.0669
      6 C          66.7341   91.7160   15.2078 C.ar    1  UNL1        0.0162
      7 C          67.1915   93.1354   15.0470 C.ar    1  UNL1        0.0014
      8 C          66.6557   93.9734   13.9243 C.ar    1  UNL1        0.0016
      9 C          65.6624   93.3919   12.9623 C.ar    1  UNL1        0.0188
     10 C          65.2050   91.9725   13.1231 C.ar    1  UNL1        0.0789
     11 N          64.2118   91.3911   12.1611 N.ar    1  UNL1       -0.2852
     12 C          64.1678   91.6383   10.6823 C.ar    1  UNL1        0.1023
     13 C          63.0169   90.8603   10.1162 C.ar    1  UNL1        0.1196
     14 N          62.3497   90.1323   11.2453 N.ar    1  UNL1       -0.2220
     15 C          63.0881   90.4603   12.5090 C.ar    1  UNL1        0.1829
     16 C          63.7815   87.9552   15.5889 C.ar    1  UNL1        0.1035
     17 C          63.0317   87.3982   16.7626 C.ar    1  UNL1        0.1105
     18 N          62.7804   85.9422   16.5034 N.ar    1  UNL1       -0.2366
     19 C          63.3748   85.5995   15.1694 C.ar    1  UNL1        0.1109
     20 S          63.9935   86.8436   14.6043 S.2     1  UNL1       -0.0619
     21 C          63.3541   84.2498   14.5155 C.ar    1  UNL1        0.0238
     22 C          64.3619   83.9139   13.4565 C.ar    1  UNL1        0.0020
     23 C          64.3412   82.5642   12.8026 C.ar    1  UNL1        0.0001
     24 C          63.3127   81.5502   13.2077 C.ar    1  UNL1        0.0000
     25 C          62.3049   81.8860   14.2668 C.ar    1  UNL1        0.0001
     26 C          62.3257   83.2358   14.9207 C.ar    1  UNL1        0.0020
@<TRIPOS>BOND
     1     1     2    2
     2     2     3   am
     3     3     5    1
     4     5     6   ar
     5     6     7   ar
     6     7     8   ar
     7     8     9   ar
     8     9    10   ar
     9    10    11    1
    10    11    12   ar
    11    12    13   ar
    12    13    14   ar
    13    14    15   ar
    14     2    16    1
    15    16    17   ar
    16    17    18   ar
    17    18    19   ar
    18    19    21    1
    19    21    22   ar
    20    22    23   ar
    21    23    24   ar
    22    24    25   ar
    23    25    26   ar
    24    19    20   ar
    25    10     5   ar
    26    15    11   ar
    27    20    16   ar
    28    26    21   ar
    29     3     4    1
@<TRIPOS>MOLECULE
*****
 26 29 0 0 0
SMALL
GASTEIGER

@<TRIPOS>ATOM
      1 O          63.7039   86.9880   15.7026 O.2     1  UNL1       -0.2692
      2 C          63.4893   86.3405   14.3667 C.2     1  UNL1        0.2571
      3 N          63.5072   87.1722   13.1186 N.am    1  UNL1       -0.2788
      4 H          63.3664   86.7473   12.2418 H       1  UNL1        0.1552
      5 C          63.7396   88.6516   13.2064 C.ar    1  UNL1        0.0669
      6 C          64.7122   89.1998   14.2081 C.ar    1  UNL1        0.0162
      7 C          64.9446   90.6791   14.2960 C.ar    1  UNL1        0.0014
      8 C          64.2045   91.6101   13.3820 C.ar    1  UNL1        0.0016
      9 C          63.2319   91.0618   12.3802 C.ar    1  UNL1        0.0188
     10 C          62.9995   89.5826   12.2924 C.ar    1  UNL1        0.0789
     11 N          62.0269   89.0344   11.2906 N.ar    1  UNL1       -0.2852
     12 C          62.3771   88.2653   10.0513 C.ar    1  UNL1        0.1023
     13 C          61.1001   87.9145    9.3470 C.ar    1  UNL1        0.1196
     14 N          59.9605   88.4669   10.1510 N.ar    1  UNL1       -0.2220
     15 C          60.5334   89.1590   11.3522 C.ar    1  UNL1        0.1829
     16 C          63.2569   84.8612   14.2789 C.ar    1  UNL1        0.1035
     17 C          62.9612   83.9454   15.4296 C.ar    1  UNL1        0.1105
     18 N          62.8009   82.5561   14.8869 N.ar    1  UNL1       -0.2366
     19 C          62.9976   82.6134   13.4009 C.ar    1  UNL1        0.1109
     20 S          63.2794   84.0380   13.0252 S.2     1  UNL1       -0.0619
     21 C          62.9251   81.4504   12.4565 C.ar    1  UNL1        0.0238
     22 C          63.2447   81.6428   11.0036 C.ar    1  UNL1        0.0020
     23 C          63.1723   80.4798   10.0593 C.ar    1  UNL1        0.0001
     24 C          62.7802   79.1241   10.5677 C.ar    1  UNL1        0.0000
     25 C          62.4606   78.9315   12.0206 C.ar    1  UNL1        0.0001
     26 C          62.5331   80.0947   12.9649 C.ar    1  UNL1        0.0020
@<TRIPOS>BOND
     1     1     2    2
     2     2     3   am
     3     3     5    1
     4     5     6   ar
     5     6     7   ar
     6     7     8   ar
     7     8     9   ar
     8     9    10   ar
     9    10    11    1
    10    11    12   ar
    11    12    13   ar
    12    13    14   ar
    13    14    15   ar
    14     2    16    1
    15    16    17   ar
    16    17    18   ar
    17    18    19   ar
    18    19    21    1
    19    21    22   ar
    20    22    23   ar
    21    23    24   ar
    22    24    25   ar
    23    25    26   ar
    24    19    20   ar
    25    10     5   ar
    26    15    11   ar
    27    20    16   ar
    28    26    21   ar
    29     3     4    1
@<TRIPOS>MOLECULE
*****
 26 29 0 0 0
SMALL
GASTEIGER

@<TRIPOS>ATOM
      1 O          64.2547   87.1875   14.2296 O.2     1  UNL1       -0.2692
      2 C          63.4264   86.4282   13.2359 C.2     1  UNL1        0.2571
      3 N          62.7740   87.1513   12.0951 N.am    1  UNL1       -0.2788
      4 H          62.2303   86.6529   11.4429 H       1  UNL1        0.1552
      5 C          62.9499   88.6337   11.9479 C.ar    1  UNL1        0.0669
      6 C          63.7484   89.3985   12.9615 C.ar    1  UNL1        0.0162
      7 C          63.9243   90.8808   12.8143 C.ar    1  UNL1        0.0014
      8 C          63.3017   91.5983   11.6536 C.ar    1  UNL1        0.0016
      9 C          62.5031   90.8335   10.6400 C.ar    1  UNL1        0.0188
     10 C          62.3272   89.3512   10.7871 C.ar    1  UNL1        0.0789
     11 N          61.5287   88.5864    9.7735 N.ar    1  UNL1       -0.2852
     12 C          60.2744   89.0591    9.1002 C.ar    1  UNL1        0.1023
     13 C          59.8147   87.9795    8.1658 C.ar    1  UNL1        0.1196
     14 N          60.7849   86.8395    8.2616 N.ar    1  UNL1       -0.2220
     15 C          61.8442   87.2146    9.2552 C.ar    1  UNL1        0.1829
     16 C          63.2505   84.9458   13.3831 C.ar    1  UNL1        0.1035
     17 C          63.0923   84.2008   14.6754 C.ar    1  UNL1        0.1105
     18 N          62.9459   82.7427   14.3549 N.ar    1  UNL1       -0.2366
     19 C          63.0136   82.5867   12.8645 C.ar    1  UNL1        0.1109
     20 S          63.2018   83.9483   12.2640 S.2     1  UNL1       -0.0619
     21 C          62.9111   81.2958   12.1077 C.ar    1  UNL1        0.0238
     22 C          62.5699   80.0270   12.8314 C.ar    1  UNL1        0.0020
     23 C          62.4674   78.7361   12.0746 C.ar    1  UNL1        0.0001
     24 C          62.7061   78.7138   10.5939 C.ar    1  UNL1        0.0000
     25 C          63.0473   79.9826    9.8700 C.ar    1  UNL1        0.0001
     26 C          63.1498   81.2735   10.6270 C.ar    1  UNL1        0.0020
@<TRIPOS>BOND
     1     1     2    2
     2     2     3   am
     3     3     5    1
     4     5     6   ar
     5     6     7   ar
     6     7     8   ar
     7     8     9   ar
     8     9    10   ar
     9    10    11    1
    10    11    12   ar
    11    12    13   ar
    12    13    14   ar
    13    14    15   ar
    14     2    16    1
    15    16    17   ar
    16    17    18   ar
    17    18    19   ar
    18    19    21    1
    19    21    22   ar
    20    22    23   ar
    21    23    24   ar
    22    24    25   ar
    23    25    26   ar
    24    19    20   ar
    25    10     5   ar
    26    15    11   ar
    27    20    16   ar
    28    26    21   ar
    29     3     4    1
@<TRIPOS>MOLECULE
*****
 26 29 0 0 0
SMALL
GASTEIGER

@<TRIPOS>ATOM
      1 O          59.6147   94.9049    0.8706 O.2     1  UNL1       -0.2692
      2 C          59.3301   93.7920   -0.0940 C.2     1  UNL1        0.2571
      3 N          60.4029   92.7997   -0.4320 N.am    1  UNL1       -0.2788
      4 H          60.2161   92.0692   -1.0650 H       1  UNL1        0.1552
      5 C          61.7605   92.9204    0.1946 C.ar    1  UNL1        0.0669
      6 C          62.0083   92.3561    1.5621 C.ar    1  UNL1        0.0162
      7 C          63.3658   92.4768    2.1886 C.ar    1  UNL1        0.0014
      8 C          64.4755   93.1617    1.4476 C.ar    1  UNL1        0.0016
      9 C          64.2278   93.7260    0.0800 C.ar    1  UNL1        0.0188
     10 C          62.8703   93.6053   -0.5465 C.ar    1  UNL1        0.0789
     11 N          62.6226   94.1696   -1.9141 N.ar    1  UNL1       -0.2852
     12 C          62.7360   93.4226   -3.2099 C.ar    1  UNL1        0.1023
     13 C          62.4015   94.3712   -4.3226 C.ar    1  UNL1        0.1196
     14 N          62.0814   95.7046   -3.7145 N.ar    1  UNL1       -0.2220
     15 C          62.2180   95.5799   -2.2260 C.ar    1  UNL1        0.1829
     16 C          57.9725   93.6713   -0.7205 C.ar    1  UNL1        0.1035
     17 C          57.1888   92.4034   -0.8889 C.ar    1  UNL1        0.1105
     18 N          55.8922   92.7458   -1.5610 N.ar    1  UNL1       -0.2366
     19 C          55.8746   94.2252   -1.8080 C.ar    1  UNL1        0.1109
     20 S          57.1603   94.7972   -1.2885 S.2     1  UNL1       -0.0619
     21 C          54.7661   94.9971   -2.4600 C.ar    1  UNL1        0.0238
     22 C          54.8563   95.3566   -3.9135 C.ar    1  UNL1        0.0020
     23 C          53.7478   96.1285   -4.5655 C.ar    1  UNL1        0.0001
     24 C          52.5489   96.5410   -3.7640 C.ar    1  UNL1        0.0000
     25 C          52.4585   96.1817   -2.3104 C.ar    1  UNL1        0.0001
     26 C          53.5672   95.4097   -1.6585 C.ar    1  UNL1        0.0020
@<TRIPOS>BOND
     1     1     2    2
     2     2     3   am
     3     3     5    1
     4     5     6   ar
     5     6     7   ar
     6     7     8   ar
     7     8     9   ar
     8     9    10   ar
     9    10    11    1
    10    11    12   ar
    11    12    13   ar
    12    13    14   ar
    13    14    15   ar
    14     2    16    1
    15    16    17   ar
    16    17    18   ar
    17    18    19   ar
    18    19    21    1
    19    21    22   ar
    20    22    23   ar
    21    23    24   ar
    22    24    25   ar
    23    25    26   ar
    24    19    20   ar
    25    10     5   ar
    26    15    11   ar
    27    20    16   ar
    28    26    21   ar
    29     3     4    1
