@<TRIPOS>MOLECULE
*****
 29 32 0 0 0
SMALL
GASTEIGER

@<TRIPOS>ATOM
      1 C          65.6192   93.1720   12.3159 C.ar    1  UNL1        0.0938
      2 C          65.8965   92.9671   13.7758 C.ar    1  UNL1        0.0481
      3 N          66.8050   93.9110   14.5063 N.pl3   1  UNL1       -0.3568
      4 C          65.2653   91.8184   14.5051 C.ar    1  UNL1        0.0144
      5 C          64.3567   90.8745   13.7747 C.ar    1  UNL1        0.0036
      6 C          64.0794   91.0794   12.3149 C.ar    1  UNL1        0.0300
      7 C          64.7106   92.2281   11.5855 C.ar    1  UNL1        0.1457
      8 F          64.4332   92.4329   10.1257 F       1  UNL1       -0.2040
      9 H          67.2193   94.6649   14.0276 H       1  UNL1        0.1424
     10 H          66.9871   93.7765   15.4644 H       1  UNL1        0.1424
     11 C          63.1708   90.1354   11.5843 C.ar    1  UNL1        0.0317
     12 C          62.2753   90.6481   10.4956 C.ar    1  UNL1        0.1011
     13 N          61.3668   89.7042    9.7652 N.ar    1  UNL1       -0.2297
     14 C          61.3537   88.2477   10.1234 C.ar    1  UNL1        0.1253
     15 C          62.2492   87.7350   11.2122 C.ar    1  UNL1        0.0208
     16 C          63.1577   88.6789   11.9426 C.ar    1  UNL1        0.0579
     17 CL         64.0532   88.1663   13.0314 Cl      1  UNL1       -0.0824
     18 C          62.0198   86.2586   11.3442 C.3     1  UNL1        0.0404
     19 C          61.9522   84.7910   11.6470 C.3     1  UNL1        0.0058
     20 C          62.9917   84.9634   12.7146 C.3     1  UNL1        0.0008
     21 C          63.0592   86.4310   12.4118 C.3     1  UNL1        0.0058
     22 C          60.9826   85.8587   10.3371 C.3     1  UNL1        0.0922
     23 N          60.5709   87.0880    9.5826 N.pl3   1  UNL1       -0.3181
     24 H          59.9040   87.1269    8.8594 H       1  UNL1        0.1482
     25 C          67.7969   95.2096    9.6976 C.3     1  UNL1        0.1152
     26 N          67.1656   94.0608   10.4270 N.am    1  UNL1       -0.2725
     27 C          67.4496   92.6522    9.9966 C.3     1  UNL1        0.1152
     28 C          66.2504   94.3207   11.5866 C.2     1  UNL1        0.2525
     29 O          65.9664   95.7293   12.0169 O.2     1  UNL1       -0.2698
@<TRIPOS>BOND
     1    25    26    1
     2    26    27    1
     3    26    28   am
     4    28    29    2
     5    28     1    1
     6     1     2   ar
     7     2     3    1
     8     2     4   ar
     9     4     5   ar
    10     5     6   ar
    11     6    11    1
    12    11    12   ar
    13    12    13   ar
    14    13    14   ar
    15    14    15   ar
    16    15    16   ar
    17    16    17    1
    18    15    18    1
    19    18    19    1
    20    19    20    1
    21    20    21    1
    22    18    22    1
    23    22    23    1
    24     6     7   ar
    25     7     8    1
    26     7     1   ar
    27    16    11   ar
    28    21    18    1
    29    23    14    1
    30     3     9    1
    31     3    10    1
    32    23    24    1
@<TRIPOS>MOLECULE
*****
 29 32 0 0 0
SMALL
GASTEIGER

@<TRIPOS>ATOM
      1 C          62.3427   86.6506   11.5743 C.ar    1  UNL1        0.0938
      2 C          61.4076   87.0970   10.4897 C.ar    1  UNL1        0.0481
      3 N          60.5985   86.0853    9.7336 N.pl3   1  UNL1       -0.3568
      4 C          61.2817   88.5552   10.1611 C.ar    1  UNL1        0.0144
      5 C          62.0907   89.5670   10.9172 C.ar    1  UNL1        0.0036
      6 C          63.0258   89.1206   12.0018 C.ar    1  UNL1        0.0300
      7 C          63.1517   87.6625   12.3303 C.ar    1  UNL1        0.1457
      8 F          64.0868   87.2161   13.4150 F       1  UNL1       -0.2040
      9 H          60.6812   85.1283    9.9492 H       1  UNL1        0.1424
     10 H          59.9848   86.3783    9.0217 H       1  UNL1        0.1424
     11 C          63.8350   90.1324   12.7579 C.ar    1  UNL1        0.0317
     12 C          64.0803   89.9507   14.2265 C.ar    1  UNL1        0.1011
     13 N          64.8894   90.9624   14.9825 N.ar    1  UNL1       -0.2297
     14 C          65.4532   92.1560   14.2700 C.ar    1  UNL1        0.1253
     15 C          65.2078   92.3377   12.8014 C.ar    1  UNL1        0.0208
     16 C          64.3987   91.3259   12.0454 C.ar    1  UNL1        0.0579
     17 CL         64.1533   91.5076   10.5768 Cl      1  UNL1       -0.0824
     18 C          65.8858   93.6047   12.3715 C.3     1  UNL1        0.0404
     19 C          66.4807   94.8217   11.7272 C.3     1  UNL1        0.0058
     20 C          65.9022   94.4056   10.4072 C.3     1  UNL1        0.0008
     21 C          65.3074   93.1886   11.0515 C.3     1  UNL1        0.0058
     22 C          66.5502   94.2061   13.5743 C.3     1  UNL1        0.0922
     23 N          66.2828   93.3107   14.7477 N.pl3   1  UNL1       -0.3181
     24 H          66.5967   93.4555   15.6695 H       1  UNL1        0.1482
     25 C          63.1410   82.7802   11.2112 C.3     1  UNL1        0.1152
     26 N          63.0151   84.2383   10.8826 N.am    1  UNL1       -0.2725
     27 C          63.4356   84.7423    9.5339 C.3     1  UNL1        0.1152
     28 C          62.4686   85.1925   11.9029 C.2     1  UNL1        0.2525
     29 O          62.0481   84.6886   13.2517 O.2     1  UNL1       -0.2698
@<TRIPOS>BOND
     1    25    26    1
     2    26    27    1
     3    26    28   am
     4    28    29    2
     5    28     1    1
     6     1     2   ar
     7     2     3    1
     8     2     4   ar
     9     4     5   ar
    10     5     6   ar
    11     6    11    1
    12    11    12   ar
    13    12    13   ar
    14    13    14   ar
    15    14    15   ar
    16    15    16   ar
    17    16    17    1
    18    15    18    1
    19    18    19    1
    20    19    20    1
    21    20    21    1
    22    18    22    1
    23    22    23    1
    24     6     7   ar
    25     7     8    1
    26     7     1   ar
    27    16    11   ar
    28    21    18    1
    29    23    14    1
    30     3     9    1
    31     3    10    1
    32    23    24    1
@<TRIPOS>MOLECULE
*****
 29 32 0 0 0
SMALL
GASTEIGER

@<TRIPOS>ATOM
      1 C          65.6861   92.8200   12.3941 C.ar    1  UNL1        0.0938
      2 C          65.9434   93.0382   13.8557 C.ar    1  UNL1        0.0481
      3 N          66.6988   94.2514   14.3113 N.pl3   1  UNL1       -0.3568
      4 C          65.4453   92.0432   14.8616 C.ar    1  UNL1        0.0144
      5 C          64.6900   90.8300   14.4061 C.ar    1  UNL1        0.0036
      6 C          64.4327   90.6118   12.9445 C.ar    1  UNL1        0.0300
      7 C          64.9308   91.6068   11.9385 C.ar    1  UNL1        0.1457
      8 F          64.6734   91.3886   10.4770 F       1  UNL1       -0.2040
      9 H          67.0257   94.9044   13.6511 H       1  UNL1        0.1424
     10 H          66.8676   94.3946   15.2706 H       1  UNL1        0.1424
     11 C          63.6773   89.3986   12.4888 C.ar    1  UNL1        0.0317
     12 C          63.9165   88.0738   13.1505 C.ar    1  UNL1        0.1011
     13 N          63.1612   86.8607   12.6948 N.ar    1  UNL1       -0.2297
     14 C          62.1666   86.9723   11.5775 C.ar    1  UNL1        0.1253
     15 C          61.9274   88.2970   10.9158 C.ar    1  UNL1        0.0208
     16 C          62.6827   89.5102   11.3715 C.ar    1  UNL1        0.0579
     17 CL         62.4436   90.8350   10.7099 Cl      1  UNL1       -0.0824
     18 C          60.8926   88.1015    9.8477 C.3     1  UNL1        0.0404
     19 C          59.8837   88.1363    8.7381 C.3     1  UNL1        0.0058
     20 C          60.1293   89.6054    8.5609 C.3     1  UNL1        0.0008
     21 C          61.1381   89.5707    9.6705 C.3     1  UNL1        0.0058
     22 C          60.4923   86.6560    9.8492 C.3     1  UNL1        0.0922
     23 N          61.2796   85.9580   10.9183 N.pl3   1  UNL1       -0.3181
     24 H          61.2240   85.0021   11.1471 H       1  UNL1        0.1482
     25 C          67.7542   94.4195    9.4084 C.3     1  UNL1        0.1152
     26 N          67.2561   93.4245   10.4143 N.am    1  UNL1       -0.2725
     27 C          67.8300   92.0390   10.4464 C.3     1  UNL1        0.1152
     28 C          66.1842   93.8150   11.3882 C.2     1  UNL1        0.2525
     29 O          65.6103   95.2005   11.3561 O.2     1  UNL1       -0.2698
@<TRIPOS>BOND
     1    25    26    1
     2    26    27    1
     3    26    28   am
     4    28    29    2
     5    28     1    1
     6     1     2   ar
     7     2     3    1
     8     2     4   ar
     9     4     5   ar
    10     5     6   ar
    11     6    11    1
    12    11    12   ar
    13    12    13   ar
    14    13    14   ar
    15    14    15   ar
    16    15    16   ar
    17    16    17    1
    18    15    18    1
    19    18    19    1
    20    19    20    1
    21    20    21    1
    22    18    22    1
    23    22    23    1
    24     6     7   ar
    25     7     8    1
    26     7     1   ar
    27    16    11   ar
    28    21    18    1
    29    23    14    1
    30     3     9    1
    31     3    10    1
    32    23    24    1
@<TRIPOS>MOLECULE
*****
 29 32 0 0 0
SMALL
GASTEIGER

@<TRIPOS>ATOM
      1 C          65.3483   92.0717   14.7286 C.ar    1  UNL1        0.0938
      2 C          64.7291   91.8598   16.0783 C.ar    1  UNL1        0.0481
      3 N          65.2609   92.5972   17.2715 N.pl3   1  UNL1       -0.3568
      4 C          63.5783   90.9107   16.2349 C.ar    1  UNL1        0.0144
      5 C          63.0465   90.1733   15.0418 C.ar    1  UNL1        0.0036
      6 C          63.6657   90.3852   13.6921 C.ar    1  UNL1        0.0300
      7 C          64.8165   91.3344   13.5355 C.ar    1  UNL1        0.1457
      8 F          65.4356   91.5462   12.1857 F       1  UNL1       -0.2040
      9 H          66.0162   93.2201   17.1687 H       1  UNL1        0.1424
     10 H          64.8545   92.4581   18.1573 H       1  UNL1        0.1424
     11 C          63.1339   89.6478   12.4988 C.ar    1  UNL1        0.0317
     12 C          62.5792   90.4101   11.3321 C.ar    1  UNL1        0.1011
     13 N          62.0475   89.6727   10.1390 N.ar    1  UNL1       -0.2297
     14 C          62.0705   88.1732   10.1126 C.ar    1  UNL1        0.1253
     15 C          62.6252   87.4109   11.2793 C.ar    1  UNL1        0.0208
     16 C          63.1569   88.1483   12.4724 C.ar    1  UNL1        0.0579
     17 CL         63.7117   87.3860   13.6392 Cl      1  UNL1       -0.0824
     18 C          62.5173   85.9471   10.9702 C.3     1  UNL1        0.0404
     19 C          62.5074   84.4503   10.8725 C.3     1  UNL1        0.0058
     20 C          63.1351   84.3574   12.2317 C.3     1  UNL1        0.0008
     21 C          63.1449   85.8543   12.3294 C.3     1  UNL1        0.0058
     22 C          61.8959   85.8046    9.6125 C.3     1  UNL1        0.0922
     23 N          61.6197   87.1804    9.0824 N.pl3   1  UNL1       -0.3181
     24 H          61.2139   87.3943    8.2113 H       1  UNL1        0.1482
     25 C          69.0179   93.5745   14.8870 C.3     1  UNL1        0.1152
     26 N          67.8671   92.6253   15.0435 N.am    1  UNL1       -0.2725
     27 C          68.0841   91.2806   15.6716 C.3     1  UNL1        0.1152
     28 C          66.4992   93.0209   14.5720 C.2     1  UNL1        0.2525
     29 O          66.2821   94.3657   13.9439 O.2     1  UNL1       -0.2698
@<TRIPOS>BOND
     1    25    26    1
     2    26    27    1
     3    26    28   am
     4    28    29    2
     5    28     1    1
     6     1     2   ar
     7     2     3    1
     8     2     4   ar
     9     4     5   ar
    10     5     6   ar
    11     6    11    1
    12    11    12   ar
    13    12    13   ar
    14    13    14   ar
    15    14    15   ar
    16    15    16   ar
    17    16    17    1
    18    15    18    1
    19    18    19    1
    20    19    20    1
    21    20    21    1
    22    18    22    1
    23    22    23    1
    24     6     7   ar
    25     7     8    1
    26     7     1   ar
    27    16    11   ar
    28    21    18    1
    29    23    14    1
    30     3     9    1
    31     3    10    1
    32    23    24    1
@<TRIPOS>MOLECULE
*****
 29 32 0 0 0
SMALL
GASTEIGER

@<TRIPOS>ATOM
      1 C          62.9872   88.7681   12.2753 C.ar    1  UNL1        0.0938
      2 C          63.9105   89.5585   13.1544 C.ar    1  UNL1        0.0481
      3 N          64.1450   91.0143   12.8790 N.pl3   1  UNL1       -0.3568
      4 C          64.5993   88.8932   14.3089 C.ar    1  UNL1        0.0144
      5 C          64.3648   87.4375   14.5844 C.ar    1  UNL1        0.0036
      6 C          63.4415   86.6471   13.7053 C.ar    1  UNL1        0.0300
      7 C          62.7527   87.3124   12.5508 C.ar    1  UNL1        0.1457
      8 F          61.8294   86.5219   11.6718 F       1  UNL1       -0.2040
      9 H          63.6929   91.4509   12.1212 H       1  UNL1        0.1424
     10 H          64.7510   91.5330   13.4559 H       1  UNL1        0.1424
     11 C          63.2070   85.1913   13.9808 C.ar    1  UNL1        0.0317
     12 C          62.9129   84.7302   15.3775 C.ar    1  UNL1        0.1011
     13 N          62.6784   83.2745   15.6529 N.ar    1  UNL1       -0.2297
     14 C          62.7380   82.2799   14.5316 C.ar    1  UNL1        0.1253
     15 C          63.0321   82.7411   13.1349 C.ar    1  UNL1        0.0208
     16 C          63.2666   84.1968   12.8595 C.ar    1  UNL1        0.0579
     17 CL         63.5607   84.6580   11.4628 Cl      1  UNL1       -0.0824
     18 C          63.0270   81.5382   12.2389 C.3     1  UNL1        0.0404
     19 C          63.0706   80.4870   11.1696 C.3     1  UNL1        0.0058
     20 C          63.3785   81.5402   10.1468 C.3     1  UNL1        0.0008
     21 C          63.3349   82.5913   11.2161 C.3     1  UNL1        0.0058
     22 C          62.7297   80.3336   13.0817 C.3     1  UNL1        0.0922
     23 N          62.5511   80.7920   14.4988 N.pl3   1  UNL1       -0.3181
     24 H          62.3471   80.2172   15.2716 H       1  UNL1        0.1482
     25 C          60.1290   90.3348   10.0113 C.3     1  UNL1        0.1152
     26 N          60.8178   89.6695   11.1658 N.am    1  UNL1       -0.2725
     27 C          60.0260   89.2403   12.3653 C.3     1  UNL1        0.1152
     28 C          62.2984   89.4334   11.1208 C.2     1  UNL1        0.2525
     29 O          63.0902   89.8627    9.9213 O.2     1  UNL1       -0.2698
@<TRIPOS>BOND
     1    25    26    1
     2    26    27    1
     3    26    28   am
     4    28    29    2
     5    28     1    1
     6     1     2   ar
     7     2     3    1
     8     2     4   ar
     9     4     5   ar
    10     5     6   ar
    11     6    11    1
    12    11    12   ar
    13    12    13   ar
    14    13    14   ar
    15    14    15   ar
    16    15    16   ar
    17    16    17    1
    18    15    18    1
    19    18    19    1
    20    19    20    1
    21    20    21    1
    22    18    22    1
    23    22    23    1
    24     6     7   ar
    25     7     8    1
    26     7     1   ar
    27    16    11   ar
    28    21    18    1
    29    23    14    1
    30     3     9    1
    31     3    10    1
    32    23    24    1
@<TRIPOS>MOLECULE
*****
 29 32 0 0 0
SMALL
GASTEIGER

@<TRIPOS>ATOM
      1 C          61.7436   87.5729   10.9744 C.ar    1  UNL1        0.0938
      2 C          60.5349   88.0219   10.2080 C.ar    1  UNL1        0.0481
      3 N          59.4961   87.0226    9.7931 N.pl3   1  UNL1       -0.3568
      4 C          60.3651   89.4702    9.8565 C.ar    1  UNL1        0.0144
      5 C          61.4038   90.4695   10.2714 C.ar    1  UNL1        0.0036
      6 C          62.6126   90.0205   11.0378 C.ar    1  UNL1        0.0300
      7 C          62.7824   88.5722   11.3893 C.ar    1  UNL1        0.1457
      8 F          63.9912   88.1233   12.1558 F       1  UNL1       -0.2040
      9 H          59.6076   86.0720   10.0238 H       1  UNL1        0.1424
     10 H          58.7028   87.3173    9.2901 H       1  UNL1        0.1424
     11 C          63.6515   91.0199   11.4527 C.ar    1  UNL1        0.0317
     12 C          64.3337   91.8658   10.4188 C.ar    1  UNL1        0.1011
     13 N          65.3725   92.8651   10.8337 N.ar    1  UNL1       -0.2297
     14 C          65.7291   93.0185   12.2826 C.ar    1  UNL1        0.1253
     15 C          65.0470   92.1726   13.3166 C.ar    1  UNL1        0.0208
     16 C          64.0081   91.1733   12.9016 C.ar    1  UNL1        0.0579
     17 CL         63.3259   90.3274   13.9355 Cl      1  UNL1       -0.0824
     18 C          65.6024   92.5442   14.6594 C.3     1  UNL1        0.0404
     19 C          66.0106   92.7531   16.0877 C.3     1  UNL1        0.0058
     20 C          65.0369   91.6972   16.5204 C.3     1  UNL1        0.0008
     21 C          64.6288   91.4883   15.0922 C.3     1  UNL1        0.0058
     22 C          66.6279   93.6197   14.4555 C.3     1  UNL1        0.0922
     23 N          66.7062   93.9128   12.9865 N.pl3   1  UNL1       -0.3181
     24 H          67.2955   94.5758   12.5594 H       1  UNL1        0.1482
     25 C          62.6117   83.7135   10.6557 C.3     1  UNL1        0.1152
     26 N          62.4418   85.1618   10.3042 N.am    1  UNL1       -0.2725
     27 C          62.8002   85.6474    8.9310 C.3     1  UNL1        0.1152
     28 C          61.9135   86.1246   11.3260 C.2     1  UNL1        0.2525
     29 O          61.5551   85.6391   12.6992 O.2     1  UNL1       -0.2698
@<TRIPOS>BOND
     1    25    26    1
     2    26    27    1
     3    26    28   am
     4    28    29    2
     5    28     1    1
     6     1     2   ar
     7     2     3    1
     8     2     4   ar
     9     4     5   ar
    10     5     6   ar
    11     6    11    1
    12    11    12   ar
    13    12    13   ar
    14    13    14   ar
    15    14    15   ar
    16    15    16   ar
    17    16    17    1
    18    15    18    1
    19    18    19    1
    20    19    20    1
    21    20    21    1
    22    18    22    1
    23    22    23    1
    24     6     7   ar
    25     7     8    1
    26     7     1   ar
    27    16    11   ar
    28    21    18    1
    29    23    14    1
    30     3     9    1
    31     3    10    1
    32    23    24    1
@<TRIPOS>MOLECULE
*****
 29 32 0 0 0
SMALL
GASTEIGER

@<TRIPOS>ATOM
      1 C          64.9609   91.8313   12.6318 C.ar    1  UNL1        0.0938
      2 C          65.2594   90.9870   13.8352 C.ar    1  UNL1        0.0481
      3 N          66.3459   91.3937   14.7860 N.pl3   1  UNL1       -0.3568
      4 C          64.4714   89.7359   14.0877 C.ar    1  UNL1        0.0144
      5 C          63.3849   89.3291   13.1370 C.ar    1  UNL1        0.0036
      6 C          63.0864   90.1734   11.9336 C.ar    1  UNL1        0.0300
      7 C          63.8744   91.4245   11.6811 C.ar    1  UNL1        0.1457
      8 F          63.5759   92.2688   10.4777 F       1  UNL1       -0.2040
      9 H          66.8631   92.2148   14.6202 H       1  UNL1        0.1424
     10 H          66.5418   90.8395   15.5758 H       1  UNL1        0.1424
     11 C          61.9998   89.7666   10.9828 C.ar    1  UNL1        0.0317
     12 C          60.8090   90.6559   10.7800 C.ar    1  UNL1        0.1011
     13 N          59.7225   90.2491    9.8292 N.ar    1  UNL1       -0.2297
     14 C          59.8269   88.9531    9.0812 C.ar    1  UNL1        0.1253
     15 C          61.0177   88.0638    9.2839 C.ar    1  UNL1        0.0208
     16 C          62.1042   88.4707   10.2347 C.ar    1  UNL1        0.0579
     17 CL         63.2951   87.5815   10.4376 Cl      1  UNL1       -0.0824
     18 C          60.8464   86.8542    8.4138 C.3     1  UNL1        0.0404
     19 C          60.8818   85.5745    7.6319 C.3     1  UNL1        0.0058
     20 C          62.2004   85.2285    8.2579 C.3     1  UNL1        0.0008
     21 C          62.1650   86.5082    9.0398 C.3     1  UNL1        0.0058
     22 C          59.5498   86.9957    7.6732 C.3     1  UNL1        0.0922
     23 N          58.9196   88.2929    8.0857 N.pl3   1  UNL1       -0.3181
     24 H          58.0612   88.6485    7.7602 H       1  UNL1        0.1482
     25 C          67.2485   94.5206   10.8196 C.3     1  UNL1        0.1152
     26 N          66.4605   93.2696   11.0721 N.am    1  UNL1       -0.2725
     27 C          66.3839   92.2057   10.0175 C.3     1  UNL1        0.1152
     28 C          65.7490   93.0824   12.3793 C.2     1  UNL1        0.2525
     29 O          65.8255   94.1463   13.4339 O.2     1  UNL1       -0.2698
@<TRIPOS>BOND
     1    25    26    1
     2    26    27    1
     3    26    28   am
     4    28    29    2
     5    28     1    1
     6     1     2   ar
     7     2     3    1
     8     2     4   ar
     9     4     5   ar
    10     5     6   ar
    11     6    11    1
    12    11    12   ar
    13    12    13   ar
    14    13    14   ar
    15    14    15   ar
    16    15    16   ar
    17    16    17    1
    18    15    18    1
    19    18    19    1
    20    19    20    1
    21    20    21    1
    22    18    22    1
    23    22    23    1
    24     6     7   ar
    25     7     8    1
    26     7     1   ar
    27    16    11   ar
    28    21    18    1
    29    23    14    1
    30     3     9    1
    31     3    10    1
    32    23    24    1
@<TRIPOS>MOLECULE
*****
 29 32 0 0 0
SMALL
GASTEIGER

@<TRIPOS>ATOM
      1 C          64.0898   89.3680   14.9703 C.ar    1  UNL1        0.0938
      2 C          63.4743   89.7134   16.2939 C.ar    1  UNL1        0.0481
      3 N          63.4022   91.1446   16.7369 N.pl3   1  UNL1       -0.3568
      4 C          62.9308   88.6274   17.1745 C.ar    1  UNL1        0.0144
      5 C          63.0029   87.1962   16.7315 C.ar    1  UNL1        0.0036
      6 C          63.6184   86.8508   15.4080 C.ar    1  UNL1        0.0300
      7 C          64.1619   87.9367   14.5274 C.ar    1  UNL1        0.1457
      8 F          64.7774   87.5913   13.2038 F       1  UNL1       -0.2040
      9 H          63.7589   91.8574   16.1589 H       1  UNL1        0.1424
     10 H          62.9982   91.3713   17.6056 H       1  UNL1        0.1424
     11 C          63.6905   85.4195   14.9650 C.ar    1  UNL1        0.0317
     12 C          63.9437   84.3351   15.9700 C.ar    1  UNL1        0.1011
     13 N          64.0158   82.9039   15.5270 N.ar    1  UNL1       -0.2297
     14 C          63.8346   82.5570   14.0790 C.ar    1  UNL1        0.1253
     15 C          63.5814   83.6413   13.0739 C.ar    1  UNL1        0.0208
     16 C          63.5093   85.0725   13.5169 C.ar    1  UNL1        0.0579
     17 CL         63.2561   86.1569   12.5119 Cl      1  UNL1       -0.0824
     18 C          63.4433   82.9999   11.7250 C.3     1  UNL1        0.0404
     19 C          63.2722   82.5774   10.2959 C.3     1  UNL1        0.0058
     20 C          63.0751   84.0097    9.8961 C.3     1  UNL1        0.0008
     21 C          63.2462   84.4322   11.3252 C.3     1  UNL1        0.0058
     22 C          63.6111   81.5193   11.8963 C.3     1  UNL1        0.0922
     23 N          63.8530   81.2455   13.3512 N.pl3   1  UNL1       -0.3181
     24 H          63.9983   80.3604   13.7571 H       1  UNL1        0.1482
     25 C          64.4835   91.8800   11.9232 C.3     1  UNL1        0.1152
     26 N          63.9400   90.7941   12.8038 N.am    1  UNL1       -0.2725
     27 C          62.7033   90.0483   12.3985 C.3     1  UNL1        0.1152
     28 C          64.6333   90.4539   14.0897 C.2     1  UNL1        0.2525
     29 O          65.8701   91.1997   14.4951 O.2     1  UNL1       -0.2698
@<TRIPOS>BOND
     1    25    26    1
     2    26    27    1
     3    26    28   am
     4    28    29    2
     5    28     1    1
     6     1     2   ar
     7     2     3    1
     8     2     4   ar
     9     4     5   ar
    10     5     6   ar
    11     6    11    1
    12    11    12   ar
    13    12    13   ar
    14    13    14   ar
    15    14    15   ar
    16    15    16   ar
    17    16    17    1
    18    15    18    1
    19    18    19    1
    20    19    20    1
    21    20    21    1
    22    18    22    1
    23    22    23    1
    24     6     7   ar
    25     7     8    1
    26     7     1   ar
    27    16    11   ar
    28    21    18    1
    29    23    14    1
    30     3     9    1
    31     3    10    1
    32    23    24    1
@<TRIPOS>MOLECULE
*****
 29 32 0 0 0
SMALL
GASTEIGER

@<TRIPOS>ATOM
      1 C          65.2461   91.7668   15.1434 C.ar    1  UNL1        0.0938
      2 C          64.5658   91.8613   16.4769 C.ar    1  UNL1        0.0481
      3 N          64.8968   92.9887   17.4095 N.pl3   1  UNL1       -0.3568
      4 C          63.5546   90.8286   16.8780 C.ar    1  UNL1        0.0144
      5 C          63.2235   89.7013   15.9455 C.ar    1  UNL1        0.0036
      6 C          63.9038   89.6067   14.6120 C.ar    1  UNL1        0.0300
      7 C          64.9150   90.6394   14.2110 C.ar    1  UNL1        0.1457
      8 F          65.5952   90.5448   12.8774 F       1  UNL1       -0.2040
      9 H          65.5605   93.6665   17.1463 H       1  UNL1        0.1424
     10 H          64.4503   93.0507   18.2847 H       1  UNL1        0.1424
     11 C          63.5727   88.4793   13.6794 C.ar    1  UNL1        0.0317
     12 C          64.0060   87.0816   14.0090 C.ar    1  UNL1        0.1011
     13 N          63.6750   85.9543   13.0765 N.ar    1  UNL1       -0.2297
     14 C          62.9107   86.2247   11.8144 C.ar    1  UNL1        0.1253
     15 C          62.4775   87.6225   11.4849 C.ar    1  UNL1        0.0208
     16 C          62.8085   88.7497   12.4174 C.ar    1  UNL1        0.0579
     17 CL         62.3753   90.1475   12.0879 Cl      1  UNL1       -0.0824
     18 C          61.7422   87.5838   10.1781 C.3     1  UNL1        0.0404
     19 C          60.9821   87.7776    8.8995 C.3     1  UNL1        0.0058
     20 C          60.8831   89.2477    9.1811 C.3     1  UNL1        0.0008
     21 C          61.6433   89.0539   10.4597 C.3     1  UNL1        0.0058
     22 C          61.7210   86.1623    9.6999 C.3     1  UNL1        0.0922
     23 N          62.4432   85.3223   10.7112 N.pl3   1  UNL1       -0.3181
     24 H          62.5854   84.3495   10.6599 H       1  UNL1        0.1482
     25 C          68.6227   93.8459   14.9862 C.3     1  UNL1        0.1152
     26 N          67.6115   92.8132   15.3872 N.am    1  UNL1       -0.2725
     27 C          67.9545   91.7941   16.4331 C.3     1  UNL1        0.1152
     28 C          66.2573   92.7995   14.7424 C.2     1  UNL1        0.2525
     29 O          65.9143   93.8186   13.6965 O.2     1  UNL1       -0.2698
@<TRIPOS>BOND
     1    25    26    1
     2    26    27    1
     3    26    28   am
     4    28    29    2
     5    28     1    1
     6     1     2   ar
     7     2     3    1
     8     2     4   ar
     9     4     5   ar
    10     5     6   ar
    11     6    11    1
    12    11    12   ar
    13    12    13   ar
    14    13    14   ar
    15    14    15   ar
    16    15    16   ar
    17    16    17    1
    18    15    18    1
    19    18    19    1
    20    19    20    1
    21    20    21    1
    22    18    22    1
    23    22    23    1
    24     6     7   ar
    25     7     8    1
    26     7     1   ar
    27    16    11   ar
    28    21    18    1
    29    23    14    1
    30     3     9    1
    31     3    10    1
    32    23    24    1
