@<TRIPOS>MOLECULE
*****
 34 39 0 0 0
SMALL
GASTEIGER

@<TRIPOS>ATOM
      1 O          64.4684   88.1102   13.4506 O.2     1  UNL1       -0.2747
      2 C          63.2218   88.3508   12.6518 C.2     1  UNL1        0.2294
      3 N          62.3626   89.5451   12.9440 N.am    1  UNL1       -0.2770
      4 C          62.8343   87.3970   11.5608 C.3     1  UNL1        0.1211
      5 C          62.3833   87.9226   10.2303 C.3     1  UNL1        0.0804
      6 N          61.9959   86.9688    9.1394 N.3     1  UNL1       -0.2969
      7 C          62.0594   85.4894    9.3790 C.3     1  UNL1        0.0714
      8 C          62.5104   84.9638   10.7095 C.3     1  UNL1        0.0490
      9 C          62.8978   85.9176   11.8004 C.3     1  UNL1        0.1224
     10 O          63.3142   86.7452   12.9802 O.3     1  UNL1       -0.3492
     11 C          63.6854   85.8112   14.0938 C.3     1  UNL1        0.1687
     12 C          63.4983   84.4064   13.6023 C.ar    1  UNL1        0.0079
     13 C          63.7083   83.0759   14.2621 C.ar    1  UNL1        0.0299
     14 C          63.4316   81.8110   13.5047 C.ar    1  UNL1        0.1671
     15 F          63.6416   80.4805   14.1645 F       1  UNL1       -0.2018
     16 C          62.9449   81.8768   12.0874 C.ar    1  UNL1        0.1671
     17 F          62.6682   80.6120   11.3300 F       1  UNL1       -0.2018
     18 C          62.7349   83.2074   11.4274 C.ar    1  UNL1        0.0297
     19 C          63.0116   84.4721   12.1849 C.ar    1  UNL1        0.0033
     20 H          62.6063   87.1651    8.3462 H       1  UNL1        0.1233
     21 C          61.1160   89.7857   12.1452 C.3     1  UNL1        0.0758
     22 C          60.3985   90.5065   11.0426 C.3     1  UNL1        0.0215
     23 C          59.6743   89.4815   11.8641 C.3     1  UNL1        0.0215
     24 C          62.7501   90.4989   14.0349 C.3     1  UNL1        0.1200
     25 C          64.1221   91.1049   14.0491 C.ar    1  UNL1       -0.0023
     26 C          64.9172   91.1316   15.3207 C.ar    1  UNL1       -0.0026
     27 C          66.2892   91.7376   15.3349 C.ar    1  UNL1       -0.0003
     28 C          66.8662   92.3169   14.0774 C.ar    1  UNL1       -0.0000
     29 C          66.0712   92.2903   12.8056 C.ar    1  UNL1       -0.0003
     30 C          66.6482   92.8697   11.5481 C.ar    1  UNL1       -0.0000
     31 C          65.8531   92.8431   10.2765 C.ar    1  UNL1       -0.0000
     32 C          64.4810   92.2370   10.2624 C.ar    1  UNL1       -0.0000
     33 C          63.9040   91.6577   11.5199 C.ar    1  UNL1       -0.0003
     34 C          64.6991   91.6843   12.7915 C.ar    1  UNL1       -0.0024
@<TRIPOS>BOND
     1     1     2    2
     2     4     2    1
     3     4     5    1
     4     5     6    1
     5     6     7    1
     6     7     8    1
     7     9     8    1
     8     9    10    1
     9    10    11    1
    10    11    12    1
    11    12    13   ar
    12    13    14   ar
    13    14    15    1
    14    14    16   ar
    15    16    17    1
    16    16    18   ar
    17    18    19   ar
    18     2     3   am
    19     3    24    1
    20    24    25    1
    21    25    26   ar
    22    26    27   ar
    23    27    28   ar
    24    28    29   ar
    25    29    30   ar
    26    30    31   ar
    27    31    32   ar
    28    32    33   ar
    29    33    34   ar
    30     3    21    1
    31    21    22    1
    32    22    23    1
    33     9     4    1
    34    19    12   ar
    35    34    25   ar
    36    23    21    1
    37    19     9    1
    38    34    29   ar
    39     6    20    1
@<TRIPOS>MOLECULE
*****
 34 39 0 0 0
SMALL
GASTEIGER

@<TRIPOS>ATOM
      1 O          64.4307   88.1064   13.0939 O.2     1  UNL1       -0.2747
      2 C          63.1457   88.3694   12.3662 C.2     1  UNL1        0.2294
      3 N          62.4308   89.6746   12.5543 N.am    1  UNL1       -0.2770
      4 C          62.5756   87.3272   11.4502 C.3     1  UNL1        0.1211
      5 C          61.8802   87.7388   10.1865 C.3     1  UNL1        0.0804
      6 N          61.3101   86.6966    9.2707 N.3     1  UNL1       -0.2969
      7 C          61.4354   85.2429    9.6186 C.3     1  UNL1        0.0714
      8 C          62.1307   84.8314   10.8823 C.3     1  UNL1        0.0490
      9 C          62.7008   85.8735   11.7981 C.3     1  UNL1        0.1224
     10 O          63.3174   86.7974   12.8063 O.3     1  UNL1       -0.3492
     11 C          63.8993   85.9608   13.9069 C.3     1  UNL1        0.1687
     12 C          63.6425   84.5197   13.5790 C.ar    1  UNL1        0.0079
     13 C          63.9874   83.2497   14.2987 C.ar    1  UNL1        0.0299
     14 C          63.5915   81.9257   13.7152 C.ar    1  UNL1        0.1671
     15 F          63.9364   80.6557   14.4349 F       1  UNL1       -0.2018
     16 C          62.8508   81.8718   12.4120 C.ar    1  UNL1        0.1671
     17 F          62.4550   80.5479   11.8285 F       1  UNL1       -0.2018
     18 C          62.5059   83.1419   11.6922 C.ar    1  UNL1        0.0297
     19 C          62.9017   84.4658   12.2757 C.ar    1  UNL1        0.0033
     20 H          61.7611   86.8224    8.3645 H       1  UNL1        0.1233
     21 C          61.1458   89.9376   11.8266 C.3     1  UNL1        0.0758
     22 C          60.4182   90.4463   10.6175 C.3     1  UNL1        0.0215
     23 C          59.6476   89.8844   11.7752 C.3     1  UNL1        0.0215
     24 C          63.0009   90.7168   13.4702 C.3     1  UNL1        0.1200
     25 C          64.1877   91.5264   13.0386 C.ar    1  UNL1       -0.0023
     26 C          64.3980   91.8331   11.5855 C.ar    1  UNL1       -0.0026
     27 C          65.5847   92.6427   11.1539 C.ar    1  UNL1       -0.0003
     28 C          66.5611   93.1455   12.1755 C.ar    1  UNL1       -0.0000
     29 C          66.3509   92.8388   13.6287 C.ar    1  UNL1       -0.0003
     30 C          67.3273   93.3417   14.6503 C.ar    1  UNL1       -0.0000
     31 C          67.1170   93.0350   16.1034 C.ar    1  UNL1       -0.0000
     32 C          65.9303   92.2254   16.5350 C.ar    1  UNL1       -0.0000
     33 C          64.9538   91.7225   15.5134 C.ar    1  UNL1       -0.0003
     34 C          65.1641   92.0292   14.0603 C.ar    1  UNL1       -0.0024
@<TRIPOS>BOND
     1     1     2    2
     2     4     2    1
     3     4     5    1
     4     5     6    1
     5     6     7    1
     6     7     8    1
     7     9     8    1
     8     9    10    1
     9    10    11    1
    10    11    12    1
    11    12    13   ar
    12    13    14   ar
    13    14    15    1
    14    14    16   ar
    15    16    17    1
    16    16    18   ar
    17    18    19   ar
    18     2     3   am
    19     3    24    1
    20    24    25    1
    21    25    26   ar
    22    26    27   ar
    23    27    28   ar
    24    28    29   ar
    25    29    30   ar
    26    30    31   ar
    27    31    32   ar
    28    32    33   ar
    29    33    34   ar
    30     3    21    1
    31    21    22    1
    32    22    23    1
    33     9     4    1
    34    19    12   ar
    35    34    25   ar
    36    23    21    1
    37    19     9    1
    38    34    29   ar
    39     6    20    1
@<TRIPOS>MOLECULE
*****
 34 39 0 0 0
SMALL
GASTEIGER

@<TRIPOS>ATOM
      1 O          63.5028   87.7565   13.9197 O.2     1  UNL1       -0.2747
      2 C          63.0438   87.7959   12.4922 C.2     1  UNL1        0.2294
      3 N          62.5560   86.5434   11.8263 N.am    1  UNL1       -0.2770
      4 C          63.0727   89.0878   11.7305 C.3     1  UNL1        0.1211
      5 C          62.2673   89.2357   10.4737 C.3     1  UNL1        0.0804
      6 N          62.2962   90.5275    9.7120 N.3     1  UNL1       -0.2969
      7 C          63.1305   91.6716   10.2072 C.3     1  UNL1        0.0714
      8 C          63.9358   91.5238   11.4639 C.3     1  UNL1        0.0490
      9 C          63.9069   90.2319   12.2256 C.3     1  UNL1        0.1224
     10 O          63.9772   89.0072   13.0889 O.3     1  UNL1       -0.3492
     11 C          64.8971   89.3011   14.2366 C.3     1  UNL1        0.1687
     12 C          65.3955   90.7076   14.0827 C.ar    1  UNL1        0.0079
     13 C          66.3274   91.5387   14.9136 C.ar    1  UNL1        0.0299
     14 C          66.6475   92.9452   14.5018 C.ar    1  UNL1        0.1671
     15 F          67.5794   93.7764   15.3328 F       1  UNL1       -0.2018
     16 C          66.0355   93.5204   13.2590 C.ar    1  UNL1        0.1671
     17 F          66.3555   94.9268   12.8471 F       1  UNL1       -0.2018
     18 C          65.1035   92.6892   12.4279 C.ar    1  UNL1        0.0297
     19 C          64.7835   91.2828   12.8398 C.ar    1  UNL1        0.0033
     20 H          61.3342   90.8633    9.6652 H       1  UNL1        0.1233
     21 C          62.0970   86.5829   10.3988 C.3     1  UNL1        0.0758
     22 C          60.9856   86.6031    9.3916 C.3     1  UNL1        0.0215
     23 C          62.4136   86.6311    8.9334 C.3     1  UNL1        0.0215
     24 C          62.5271   85.2516   12.5880 C.3     1  UNL1        0.1200
     25 C          62.9452   83.9763   11.9179 C.ar    1  UNL1       -0.0023
     26 C          63.7197   84.0226   10.6342 C.ar    1  UNL1       -0.0026
     27 C          64.1379   82.7474    9.9642 C.ar    1  UNL1       -0.0003
     28 C          63.7815   81.4259   10.5778 C.ar    1  UNL1       -0.0000
     29 C          63.0070   81.3796   11.8616 C.ar    1  UNL1       -0.0003
     30 C          62.6506   80.0581   12.4752 C.ar    1  UNL1       -0.0000
     31 C          61.8761   80.0118   13.7590 C.ar    1  UNL1       -0.0000
     32 C          61.4580   81.2870   14.4290 C.ar    1  UNL1       -0.0000
     33 C          61.8143   82.6085   13.8154 C.ar    1  UNL1       -0.0003
     34 C          62.5888   82.6548   12.5317 C.ar    1  UNL1       -0.0024
@<TRIPOS>BOND
     1     1     2    2
     2     4     2    1
     3     4     5    1
     4     5     6    1
     5     6     7    1
     6     7     8    1
     7     9     8    1
     8     9    10    1
     9    10    11    1
    10    11    12    1
    11    12    13   ar
    12    13    14   ar
    13    14    15    1
    14    14    16   ar
    15    16    17    1
    16    16    18   ar
    17    18    19   ar
    18     2     3   am
    19     3    24    1
    20    24    25    1
    21    25    26   ar
    22    26    27   ar
    23    27    28   ar
    24    28    29   ar
    25    29    30   ar
    26    30    31   ar
    27    31    32   ar
    28    32    33   ar
    29    33    34   ar
    30     3    21    1
    31    21    22    1
    32    22    23    1
    33     9     4    1
    34    19    12   ar
    35    34    25   ar
    36    23    21    1
    37    19     9    1
    38    34    29   ar
    39     6    20    1
@<TRIPOS>MOLECULE
*****
 34 39 0 0 0
SMALL
GASTEIGER

@<TRIPOS>ATOM
      1 O          61.5939   96.6439   -0.1694 O.2     1  UNL1       -0.2747
      2 C          60.6319   95.6678   -0.7791 C.2     1  UNL1        0.2294
      3 N          59.9530   94.6456    0.0835 N.am    1  UNL1       -0.2770
      4 C          60.3487   95.7140   -2.2515 C.3     1  UNL1        0.1211
      5 C          59.1722   96.4899   -2.7650 C.3     1  UNL1        0.0804
      6 N          58.8891   96.5361   -4.2372 N.3     1  UNL1       -0.2969
      7 C          59.7825   95.8063   -5.1960 C.3     1  UNL1        0.0714
      8 C          60.9590   95.0304   -4.6825 C.3     1  UNL1        0.0490
      9 C          61.2421   94.9843   -3.2103 C.3     1  UNL1        0.1224
     10 O          61.6487   94.8475   -1.7728 O.3     1  UNL1       -0.3492
     11 C          62.8765   93.9876   -1.7182 C.3     1  UNL1        0.1687
     12 C          63.2289   93.5929   -3.1218 C.ar    1  UNL1        0.0079
     13 C          64.3389   92.7522   -3.6794 C.ar    1  UNL1        0.0299
     14 C          64.4390   92.5275   -5.1591 C.ar    1  UNL1        0.1671
     15 F          65.5490   91.6868   -5.7166 F       1  UNL1       -0.2018
     16 C          63.4289   93.1435   -6.0812 C.ar    1  UNL1        0.1671
     17 F          63.5289   92.9188   -7.5609 F       1  UNL1       -0.2018
     18 C          62.3187   93.9842   -5.5237 C.ar    1  UNL1        0.0297
     19 C          62.2187   94.2089   -4.0440 C.ar    1  UNL1        0.0033
     20 H          58.9053   97.5189   -4.5095 H       1  UNL1        0.1233
     21 C          58.9909   93.6695   -0.5263 C.3     1  UNL1        0.0758
     22 C          58.7318   92.4436   -1.3510 C.3     1  UNL1        0.0215
     23 C          57.5836   93.2048   -0.7577 C.3     1  UNL1        0.0215
     24 C          60.2361   94.5994    1.5558 C.3     1  UNL1        0.1200
     25 C          61.1475   93.5456    2.1115 C.ar    1  UNL1       -0.0023
     26 C          62.5471   93.4128    1.5887 C.ar    1  UNL1       -0.0026
     27 C          63.4586   92.3591    2.1445 C.ar    1  UNL1       -0.0003
     28 C          62.9704   91.4381    3.2231 C.ar    1  UNL1       -0.0000
     29 C          61.5707   91.5708    3.7459 C.ar    1  UNL1       -0.0003
     30 C          61.0825   90.6498    4.8245 C.ar    1  UNL1       -0.0000
     31 C          59.6829   90.7826    5.3473 C.ar    1  UNL1       -0.0000
     32 C          58.7714   91.8364    4.7916 C.ar    1  UNL1       -0.0000
     33 C          59.2596   92.7574    3.7130 C.ar    1  UNL1       -0.0003
     34 C          60.6593   92.6246    3.1902 C.ar    1  UNL1       -0.0024
@<TRIPOS>BOND
     1     1     2    2
     2     4     2    1
     3     4     5    1
     4     5     6    1
     5     6     7    1
     6     7     8    1
     7     9     8    1
     8     9    10    1
     9    10    11    1
    10    11    12    1
    11    12    13   ar
    12    13    14   ar
    13    14    15    1
    14    14    16   ar
    15    16    17    1
    16    16    18   ar
    17    18    19   ar
    18     2     3   am
    19     3    24    1
    20    24    25    1
    21    25    26   ar
    22    26    27   ar
    23    27    28   ar
    24    28    29   ar
    25    29    30   ar
    26    30    31   ar
    27    31    32   ar
    28    32    33   ar
    29    33    34   ar
    30     3    21    1
    31    21    22    1
    32    22    23    1
    33     9     4    1
    34    19    12   ar
    35    34    25   ar
    36    23    21    1
    37    19     9    1
    38    34    29   ar
    39     6    20    1
@<TRIPOS>MOLECULE
*****
 34 39 0 0 0
SMALL
GASTEIGER

@<TRIPOS>ATOM
      1 O          62.3944   90.5099   11.9669 O.2     1  UNL1       -0.2747
      2 C          63.5030   90.7951   12.9362 C.2     1  UNL1        0.2294
      3 N          64.6397   91.6874   12.5342 N.am    1  UNL1       -0.2770
      4 C          63.4749   90.1879   14.3076 C.3     1  UNL1        0.1211
      5 C          63.4576   91.0721   15.5191 C.3     1  UNL1        0.0804
      6 N          63.4296   90.4649   16.8904 N.3     1  UNL1       -0.2969
      7 C          63.4188   88.9734   17.0501 C.3     1  UNL1        0.0714
      8 C          63.4360   88.0892   15.8386 C.3     1  UNL1        0.0490
      9 C          63.4641   88.6964   14.4673 C.3     1  UNL1        0.1224
     10 O          63.4924   89.1569   13.0400 O.3     1  UNL1       -0.3492
     11 C          63.5019   87.9416   12.1609 C.3     1  UNL1        0.1687
     12 C          63.4795   86.7299   13.0449 C.ar    1  UNL1        0.0079
     13 C          63.4773   85.2621   12.7360 C.ar    1  UNL1        0.0299
     14 C          63.4517   84.2607   13.8526 C.ar    1  UNL1        0.1671
     15 F          63.4496   82.7929   13.5437 F       1  UNL1       -0.2018
     16 C          63.4284   84.7272   15.2780 C.ar    1  UNL1        0.1671
     17 F          63.4028   83.7259   16.3945 F       1  UNL1       -0.2018
     18 C          63.4306   86.1951   15.5869 C.ar    1  UNL1        0.0297
     19 C          63.4561   87.1964   14.4704 C.ar    1  UNL1        0.0033
     20 H          62.5901   90.8164   17.3509 H       1  UNL1        0.1233
     21 C          65.7483   91.9726   13.5037 C.3     1  UNL1        0.0758
     22 C          66.3845   92.8720   14.5217 C.3     1  UNL1        0.0215
     23 C          67.0322   91.5671   14.1647 C.3     1  UNL1        0.0215
     24 C          64.6678   92.2946   11.1630 C.3     1  UNL1        0.1200
     25 C          65.9793   92.6430   10.5237 C.ar    1  UNL1       -0.0023
     26 C          67.0306   91.5881   10.3458 C.ar    1  UNL1       -0.0026
     27 C          68.3421   91.9365    9.7066 C.ar    1  UNL1       -0.0003
     28 C          68.6022   93.3399    9.2453 C.ar    1  UNL1       -0.0000
     29 C          67.5508   94.3949    9.4231 C.ar    1  UNL1       -0.0003
     30 C          67.8110   95.7983    8.9618 C.ar    1  UNL1       -0.0000
     31 C          66.7596   96.8532    9.1397 C.ar    1  UNL1       -0.0000
     32 C          65.4481   96.5048    9.7789 C.ar    1  UNL1       -0.0000
     33 C          65.1880   95.1014   10.2403 C.ar    1  UNL1       -0.0003
     34 C          66.2394   94.0465   10.0624 C.ar    1  UNL1       -0.0024
@<TRIPOS>BOND
     1     1     2    2
     2     4     2    1
     3     4     5    1
     4     5     6    1
     5     6     7    1
     6     7     8    1
     7     9     8    1
     8     9    10    1
     9    10    11    1
    10    11    12    1
    11    12    13   ar
    12    13    14   ar
    13    14    15    1
    14    14    16   ar
    15    16    17    1
    16    16    18   ar
    17    18    19   ar
    18     2     3   am
    19     3    24    1
    20    24    25    1
    21    25    26   ar
    22    26    27   ar
    23    27    28   ar
    24    28    29   ar
    25    29    30   ar
    26    30    31   ar
    27    31    32   ar
    28    32    33   ar
    29    33    34   ar
    30     3    21    1
    31    21    22    1
    32    22    23    1
    33     9     4    1
    34    19    12   ar
    35    34    25   ar
    36    23    21    1
    37    19     9    1
    38    34    29   ar
    39     6    20    1
@<TRIPOS>MOLECULE
*****
 34 39 0 0 0
SMALL
GASTEIGER

@<TRIPOS>ATOM
      1 O          61.2173   96.8560   -1.3066 O.2     1  UNL1       -0.2747
      2 C          62.0019   95.6803   -1.8084 C.2     1  UNL1        0.2294
      3 N          61.8096   95.1953   -3.2148 N.am    1  UNL1       -0.2770
      4 C          62.9790   94.9894   -0.9039 C.3     1  UNL1        0.1211
      5 C          64.4517   95.1011   -1.1656 C.3     1  UNL1        0.0804
      6 N          65.4287   94.4103   -0.2611 N.3     1  UNL1       -0.2969
      7 C          64.9330   93.6077    0.9052 C.3     1  UNL1        0.0714
      8 C          63.4602   93.4960    1.1669 C.3     1  UNL1        0.0490
      9 C          62.4833   94.1868    0.2623 C.3     1  UNL1        0.1224
     10 O          61.3927   94.8187   -0.5511 O.3     1  UNL1       -0.3492
     11 C          60.0779   94.4461    0.0673 C.3     1  UNL1        0.1687
     12 C          60.3557   93.5838    1.2629 C.ar    1  UNL1        0.0079
     13 C          59.4472   92.9239    2.2573 C.ar    1  UNL1        0.0299
     14 C          60.0252   92.1037    3.3724 C.ar    1  UNL1        0.1671
     15 F          59.1167   91.4438    4.3668 F       1  UNL1       -0.2018
     16 C          61.5117   91.9435    3.4929 C.ar    1  UNL1        0.1671
     17 F          62.0897   91.1234    4.6079 F       1  UNL1       -0.2018
     18 C          62.4204   92.6035    2.4984 C.ar    1  UNL1        0.0297
     19 C          61.8424   93.4236    1.3834 C.ar    1  UNL1        0.0033
     20 H          66.0410   95.1328    0.1177 H       1  UNL1        0.1233
     21 C          62.5944   94.0195   -3.7166 C.3     1  UNL1        0.0758
     22 C          63.1772   92.6556   -3.4927 C.3     1  UNL1        0.0215
     23 C          63.3707   93.3469   -4.8097 C.3     1  UNL1        0.0215
     24 C          60.8326   95.8861   -4.1193 C.3     1  UNL1        0.1200
     25 C          60.0283   95.0890   -5.1031 C.ar    1  UNL1       -0.0023
     26 C          60.2171   95.3043   -6.5755 C.ar    1  UNL1       -0.0026
     27 C          59.4128   94.5072   -7.5592 C.ar    1  UNL1       -0.0003
     28 C          58.4198   93.4948   -7.0706 C.ar    1  UNL1       -0.0000
     29 C          58.2309   93.2795   -5.5982 C.ar    1  UNL1       -0.0003
     30 C          57.2379   92.2671   -5.1095 C.ar    1  UNL1       -0.0000
     31 C          57.0491   92.0517   -3.6372 C.ar    1  UNL1       -0.0000
     32 C          57.8534   92.8488   -2.6534 C.ar    1  UNL1       -0.0000
     33 C          58.8464   93.8612   -3.1420 C.ar    1  UNL1       -0.0003
     34 C          59.0352   94.0766   -4.6144 C.ar    1  UNL1       -0.0024
@<TRIPOS>BOND
     1     1     2    2
     2     4     2    1
     3     4     5    1
     4     5     6    1
     5     6     7    1
     6     7     8    1
     7     9     8    1
     8     9    10    1
     9    10    11    1
    10    11    12    1
    11    12    13   ar
    12    13    14   ar
    13    14    15    1
    14    14    16   ar
    15    16    17    1
    16    16    18   ar
    17    18    19   ar
    18     2     3   am
    19     3    24    1
    20    24    25    1
    21    25    26   ar
    22    26    27   ar
    23    27    28   ar
    24    28    29   ar
    25    29    30   ar
    26    30    31   ar
    27    31    32   ar
    28    32    33   ar
    29    33    34   ar
    30     3    21    1
    31    21    22    1
    32    22    23    1
    33     9     4    1
    34    19    12   ar
    35    34    25   ar
    36    23    21    1
    37    19     9    1
    38    34    29   ar
    39     6    20    1
@<TRIPOS>MOLECULE
*****
 34 39 0 0 0
SMALL
GASTEIGER

@<TRIPOS>ATOM
      1 O          58.7264   96.8559   -1.0816 O.2     1  UNL1       -0.2747
      2 C          58.9113   95.5514   -1.7986 C.2     1  UNL1        0.2294
      3 N          57.7307   94.8589   -2.4123 N.am    1  UNL1       -0.2770
      4 C          60.2769   94.9394   -1.9019 C.3     1  UNL1        0.1211
      5 C          61.0827   95.1107   -3.1555 C.3     1  UNL1        0.0804
      6 N          62.4482   94.4986   -3.2588 N.3     1  UNL1       -0.2969
      7 C          63.0079   93.7153   -2.1086 C.3     1  UNL1        0.0714
      8 C          62.2022   93.5439   -0.8550 C.3     1  UNL1        0.0490
      9 C          60.8367   94.1560   -0.7517 C.3     1  UNL1        0.1224
     10 O          59.4637   94.7071   -0.5039 O.3     1  UNL1       -0.3492
     11 C          59.0408   94.2952    0.8751 C.3     1  UNL1        0.1687
     12 C          60.1524   93.4895    1.4796 C.ar    1  UNL1        0.0079
     13 C          60.2974   92.8232    2.8155 C.ar    1  UNL1        0.0299
     14 C          61.5522   92.0707    3.1461 C.ar    1  UNL1        0.1671
     15 F          61.6972   91.4043    4.4821 F       1  UNL1       -0.2018
     16 C          62.6620   91.9847    2.1407 C.ar    1  UNL1        0.1671
     17 F          63.9169   91.2323    2.4713 F       1  UNL1       -0.2018
     18 C          62.5171   92.6511    0.8047 C.ar    1  UNL1        0.0297
     19 C          61.2623   93.4035    0.4741 C.ar    1  UNL1        0.0033
     20 H          63.1000   95.2619   -3.4401 H       1  UNL1        0.1233
     21 C          57.9156   93.5544   -3.1293 C.3     1  UNL1        0.0758
     22 C          58.2623   92.0952   -3.1028 C.3     1  UNL1        0.0215
     23 C          57.8894   92.7541   -4.3976 C.3     1  UNL1        0.0215
     24 C          56.3651   95.4709   -2.3089 C.3     1  UNL1        0.1200
     25 C          55.6314   95.8817   -3.5511 C.ar    1  UNL1       -0.0023
     26 C          56.3958   96.2190   -4.7968 C.ar    1  UNL1       -0.0026
     27 C          55.6621   96.6298   -6.0389 C.ar    1  UNL1       -0.0003
     28 C          54.1639   96.7032   -6.0353 C.ar    1  UNL1       -0.0000
     29 C          53.3994   96.3659   -4.7896 C.ar    1  UNL1       -0.0003
     30 C          51.9012   96.4393   -4.7860 C.ar    1  UNL1       -0.0000
     31 C          51.1368   96.1020   -3.5403 C.ar    1  UNL1       -0.0000
     32 C          51.8706   95.6913   -2.2982 C.ar    1  UNL1       -0.0000
     33 C          53.3687   95.6178   -2.3017 C.ar    1  UNL1       -0.0003
     34 C          54.1331   95.9551   -3.5474 C.ar    1  UNL1       -0.0024
@<TRIPOS>BOND
     1     1     2    2
     2     4     2    1
     3     4     5    1
     4     5     6    1
     5     6     7    1
     6     7     8    1
     7     9     8    1
     8     9    10    1
     9    10    11    1
    10    11    12    1
    11    12    13   ar
    12    13    14   ar
    13    14    15    1
    14    14    16   ar
    15    16    17    1
    16    16    18   ar
    17    18    19   ar
    18     2     3   am
    19     3    24    1
    20    24    25    1
    21    25    26   ar
    22    26    27   ar
    23    27    28   ar
    24    28    29   ar
    25    29    30   ar
    26    30    31   ar
    27    31    32   ar
    28    32    33   ar
    29    33    34   ar
    30     3    21    1
    31    21    22    1
    32    22    23    1
    33     9     4    1
    34    19    12   ar
    35    34    25   ar
    36    23    21    1
    37    19     9    1
    38    34    29   ar
    39     6    20    1
@<TRIPOS>MOLECULE
*****
 34 39 0 0 0
SMALL
GASTEIGER

@<TRIPOS>ATOM
      1 O          61.2816   88.9252   11.9322 O.2     1  UNL1       -0.2747
      2 C          62.3777   88.4076   12.8157 C.2     1  UNL1        0.2294
      3 N          62.7498   86.9550   12.7765 N.am    1  UNL1       -0.2770
      4 C          63.1019   89.3426   13.7385 C.3     1  UNL1        0.1211
      5 C          63.0746   89.1055   15.2193 C.3     1  UNL1        0.0804
      6 N          63.7987   90.0405   16.1420 N.3     1  UNL1       -0.2969
      7 C          64.5501   91.2126   15.5838 C.3     1  UNL1        0.0714
      8 C          64.5774   91.4497   14.1029 C.3     1  UNL1        0.0490
      9 C          63.8533   90.5147   13.1803 C.3     1  UNL1        0.1224
     10 O          63.1801   89.6698   12.1395 O.3     1  UNL1       -0.3492
     11 C          63.4693   90.2712   10.7961 C.3     1  UNL1        0.1687
     12 C          64.3213   91.4878   11.0065 C.ar    1  UNL1        0.0079
     13 C          64.9116   92.4779   10.0469 C.ar    1  UNL1        0.0299
     14 C          65.7392   93.6186   10.5606 C.ar    1  UNL1        0.1671
     15 F          66.3295   94.6088    9.6010 F       1  UNL1       -0.2018
     16 C          65.9765   93.7691   12.0341 C.ar    1  UNL1        0.1671
     17 F          66.8041   94.9097   12.5478 F       1  UNL1       -0.2018
     18 C          65.3862   92.7789   12.9938 C.ar    1  UNL1        0.0297
     19 C          64.5586   91.6382   12.4801 C.ar    1  UNL1        0.0033
     20 H          64.4733   89.4783   16.6609 H       1  UNL1        0.1233
     21 C          63.8459   86.4374   13.6600 C.3     1  UNL1        0.0758
     22 C          64.9441   85.4506   13.9250 C.3     1  UNL1        0.0215
     23 C          64.6463   86.5278   14.9254 C.3     1  UNL1        0.0215
     24 C          62.0257   86.0200   11.8538 C.3     1  UNL1        0.1200
     25 C          62.6936   84.7609   11.3862 C.ar    1  UNL1       -0.0023
     26 C          63.3669   84.7221   10.0464 C.ar    1  UNL1       -0.0026
     27 C          64.0348   83.4631    9.5788 C.ar    1  UNL1       -0.0003
     28 C          64.0296   82.2428   10.4511 C.ar    1  UNL1       -0.0000
     29 C          63.3563   82.2815   11.7910 C.ar    1  UNL1       -0.0003
     30 C          63.3510   81.0613   12.6632 C.ar    1  UNL1       -0.0000
     31 C          62.6777   81.1001   14.0031 C.ar    1  UNL1       -0.0000
     32 C          62.0098   82.3591   14.4706 C.ar    1  UNL1       -0.0000
     33 C          62.0151   83.5794   13.5984 C.ar    1  UNL1       -0.0003
     34 C          62.6883   83.5406   12.2586 C.ar    1  UNL1       -0.0024
@<TRIPOS>BOND
     1     1     2    2
     2     4     2    1
     3     4     5    1
     4     5     6    1
     5     6     7    1
     6     7     8    1
     7     9     8    1
     8     9    10    1
     9    10    11    1
    10    11    12    1
    11    12    13   ar
    12    13    14   ar
    13    14    15    1
    14    14    16   ar
    15    16    17    1
    16    16    18   ar
    17    18    19   ar
    18     2     3   am
    19     3    24    1
    20    24    25    1
    21    25    26   ar
    22    26    27   ar
    23    27    28   ar
    24    28    29   ar
    25    29    30   ar
    26    30    31   ar
    27    31    32   ar
    28    32    33   ar
    29    33    34   ar
    30     3    21    1
    31    21    22    1
    32    22    23    1
    33     9     4    1
    34    19    12   ar
    35    34    25   ar
    36    23    21    1
    37    19     9    1
    38    34    29   ar
    39     6    20    1
@<TRIPOS>MOLECULE
*****
 34 39 0 0 0
SMALL
GASTEIGER

@<TRIPOS>ATOM
      1 O          57.8187   96.6991   -0.7348 O.2     1  UNL1       -0.2747
      2 C          58.1776   95.5721   -1.6574 C.2     1  UNL1        0.2294
      3 N          57.8195   95.6506   -3.1119 N.am    1  UNL1       -0.2770
      4 C          58.8946   94.3667   -1.1254 C.3     1  UNL1        0.1211
      5 C          58.1326   93.1072   -0.8375 C.3     1  UNL1        0.0804
      6 N          58.8497   91.9019   -0.3056 N.3     1  UNL1       -0.2969
      7 C          60.3287   91.9560   -0.0617 C.3     1  UNL1        0.0714
      8 C          61.0907   93.2155   -0.3496 C.3     1  UNL1        0.0490
      9 C          60.3737   94.4209   -0.8814 C.3     1  UNL1        0.1224
     10 O          59.7958   95.6990   -1.4131 O.3     1  UNL1       -0.3492
     11 C          60.9123   96.6915   -1.5485 C.3     1  UNL1        0.1687
     12 C          62.1802   96.0269   -1.1005 C.ar    1  UNL1        0.0079
     13 C          63.5948   96.5182   -1.0147 C.ar    1  UNL1        0.0299
     14 C          64.6767   95.6062   -0.5167 C.ar    1  UNL1        0.1671
     15 F          66.0912   96.0974   -0.4309 F       1  UNL1       -0.2018
     16 C          64.3437   94.2029   -0.1045 C.ar    1  UNL1        0.1671
     17 F          65.4255   93.2909    0.3936 F       1  UNL1       -0.2018
     18 C          62.9291   93.7115   -0.1902 C.ar    1  UNL1        0.0297
     19 C          61.8473   94.6235   -0.6883 C.ar    1  UNL1        0.0033
     20 H          58.6885   91.1459   -0.9712 H       1  UNL1        0.1233
     21 C          58.1784   94.5236   -4.0345 C.3     1  UNL1        0.0758
     22 C          59.1656   93.8525   -4.9428 C.3     1  UNL1        0.0215
     23 C          57.8128   93.2427   -4.7240 C.3     1  UNL1        0.0215
     24 C          57.1025   96.8559   -3.6438 C.3     1  UNL1        0.1200
     25 C          55.8502   96.6876   -4.4522 C.ar    1  UNL1       -0.0023
     26 C          55.9132   96.7307   -5.9503 C.ar    1  UNL1       -0.0026
     27 C          54.6609   96.5624   -6.7587 C.ar    1  UNL1       -0.0003
     28 C          53.3458   96.3510   -6.0691 C.ar    1  UNL1       -0.0000
     29 C          53.2828   96.3078   -4.5710 C.ar    1  UNL1       -0.0003
     30 C          51.9676   96.0963   -3.8814 C.ar    1  UNL1       -0.0000
     31 C          51.9047   96.0532   -2.3834 C.ar    1  UNL1       -0.0000
     32 C          53.1570   96.2215   -1.5749 C.ar    1  UNL1       -0.0000
     33 C          54.4721   96.4330   -2.2645 C.ar    1  UNL1       -0.0003
     34 C          54.5350   96.4761   -3.7626 C.ar    1  UNL1       -0.0024
@<TRIPOS>BOND
     1     1     2    2
     2     4     2    1
     3     4     5    1
     4     5     6    1
     5     6     7    1
     6     7     8    1
     7     9     8    1
     8     9    10    1
     9    10    11    1
    10    11    12    1
    11    12    13   ar
    12    13    14   ar
    13    14    15    1
    14    14    16   ar
    15    16    17    1
    16    16    18   ar
    17    18    19   ar
    18     2     3   am
    19     3    24    1
    20    24    25    1
    21    25    26   ar
    22    26    27   ar
    23    27    28   ar
    24    28    29   ar
    25    29    30   ar
    26    30    31   ar
    27    31    32   ar
    28    32    33   ar
    29    33    34   ar
    30     3    21    1
    31    21    22    1
    32    22    23    1
    33     9     4    1
    34    19    12   ar
    35    34    25   ar
    36    23    21    1
    37    19     9    1
    38    34    29   ar
    39     6    20    1
