@<TRIPOS>MOLECULE
*****
 35 38 0 0 0
SMALL
GASTEIGER

@<TRIPOS>ATOM
      1 C          63.3642   84.8101   13.2323 C.3     1  UNL1        0.3254
      2 F          64.6232   85.6190   13.1291 F       1  UNL1       -0.1949
      3 F          61.9920   84.2263   13.0704 F       1  UNL1       -0.1949
      4 C          62.7416   85.6409   12.1495 C.ar    1  UNL1        0.1218
      5 C          62.0567   84.9748   10.9932 C.ar    1  UNL1        0.0208
      6 C          61.4342   85.8056    9.9104 C.ar    1  UNL1        0.0112
      7 C          61.4966   87.3025    9.9841 C.ar    1  UNL1        0.0611
      8 C          62.1816   87.9686   11.1406 C.ar    1  UNL1        0.1068
      9 N          62.8041   87.1378   12.2232 N.ar    1  UNL1       -0.2421
     10 C          60.8741   88.1333    8.9015 C.1     1  UNL1       -0.0582
     11 C          60.2516   88.9641    7.8188 C.1     1  UNL1       -0.0597
     12 C          59.6291   89.7950    6.7361 C.ar    1  UNL1        0.0421
     13 C          58.1373   89.8337    6.5844 C.ar    1  UNL1        0.0106
     14 C          57.5149   90.6645    5.5018 C.ar    1  UNL1        0.0303
     15 C          58.3842   91.4567    4.5708 C.ar    1  UNL1        0.1402
     16 F          57.7617   92.2876    3.4881 F       1  UNL1       -0.2042
     17 C          59.8760   91.4181    4.7225 C.ar    1  UNL1        0.0303
     18 C          60.4984   90.5872    5.8051 C.ar    1  UNL1        0.0106
     19 O          64.6093   83.1486   15.3977 O.3     1  UNL1       -0.3755
     20 C          63.9867   83.9793   14.3150 C.3     1  UNL1        0.1932
     21 H          63.9199   82.6376   15.8499 H       1  UNL1        0.2110
     22 C          63.5760   82.7304   13.5929 C.ar    1  UNL1        0.0368
     23 C          62.5824   81.7957   14.2167 C.ar    1  UNL1        0.0028
     24 C          62.1716   80.5468   13.4946 C.ar    1  UNL1        0.0295
     25 C          62.7544   80.2325   12.1487 C.ar    1  UNL1        0.1424
     26 F          62.3437   78.9836   11.4266 F       1  UNL1       -0.2041
     27 C          63.7480   81.1672   11.5248 C.ar    1  UNL1        0.0590
     28 C          64.1588   82.4162   12.2469 C.ar    1  UNL1        0.1408
     29 F          65.1523   83.3508   11.6231 F       1  UNL1       -0.2043
     30 C          64.3975   85.2283   15.0372 C.3     1  UNL1        0.1679
     31 N          63.4198   85.9354   15.9283 N.ar    1  UNL1       -0.2078
     32 C          63.4574   87.3878   16.3011 C.ar    1  UNL1        0.2216
     33 N          62.2937   87.6643   17.2063 N.ar    1  UNL1       -0.1048
     34 N          61.5369   86.3827   17.3928 N.ar    1  UNL1       -0.0226
     35 N          62.2329   85.3142   16.6030 N.ar    1  UNL1       -0.0428
@<TRIPOS>BOND
     1    19    20    1
     2    20    30    1
     3    30    31    1
     4    31    32   ar
     5    32    33   ar
     6    33    34   ar
     7    34    35   ar
     8    20    22    1
     9    22    23   ar
    10    23    24   ar
    11    24    25   ar
    12    25    26    1
    13    25    27   ar
    14    27    28   ar
    15    28    29    1
    16    20     1    1
    17     1     2    1
    18     1     3    1
    19     1     4    1
    20     4     5   ar
    21     5     6   ar
    22     6     7   ar
    23     7    10    1
    24    10    11    3
    25    11    12    1
    26    12    13   ar
    27    13    14   ar
    28    14    15   ar
    29    15    16    1
    30    15    17   ar
    31    17    18   ar
    32     7     8   ar
    33     8     9   ar
    34    35    31   ar
    35    28    22   ar
    36     9     4   ar
    37    18    12   ar
    38    19    21    1
@<TRIPOS>MOLECULE
*****
 35 38 0 0 0
SMALL
GASTEIGER

@<TRIPOS>ATOM
      1 C          63.3426   84.8441   12.8765 C.3     1  UNL1        0.3254
      2 F          64.5360   84.6447   11.9899 F       1  UNL1       -0.1949
      3 F          62.0280   85.2411   13.4801 F       1  UNL1       -0.1949
      4 C          62.6952   85.6847   11.8161 C.ar    1  UNL1        0.1218
      5 C          62.2171   85.0500   10.5439 C.ar    1  UNL1        0.0208
      6 C          61.5698   85.8906    9.4834 C.ar    1  UNL1        0.0112
      7 C          61.4005   87.3659    9.6953 C.ar    1  UNL1        0.0611
      8 C          61.8787   88.0006   10.9676 C.ar    1  UNL1        0.1068
      9 N          62.5260   87.1600   12.0279 N.ar    1  UNL1       -0.2421
     10 C          60.7532   88.2065    8.6350 C.1     1  UNL1       -0.0582
     11 C          60.1059   89.0471    7.5746 C.1     1  UNL1       -0.0597
     12 C          59.4586   89.8878    6.5142 C.ar    1  UNL1        0.0421
     13 C          57.9651   89.9024    6.3766 C.ar    1  UNL1        0.0106
     14 C          57.3179   90.7430    5.3162 C.ar    1  UNL1        0.0303
     15 C          58.1642   91.5690    4.3935 C.ar    1  UNL1        0.1402
     16 F          57.5169   92.4096    3.3331 F       1  UNL1       -0.2042
     17 C          59.6578   91.5544    4.5311 C.ar    1  UNL1        0.0303
     18 C          60.3050   90.7137    5.5915 C.ar    1  UNL1        0.0106
     19 O          64.6373   83.1630   14.9972 O.3     1  UNL1       -0.3755
     20 C          63.9899   84.0036   13.9368 C.3     1  UNL1        0.1932
     21 H          65.4415   83.6039   15.3130 H       1  UNL1        0.2110
     22 C          63.7404   85.0847   14.9462 C.ar    1  UNL1        0.0368
     23 C          64.4217   86.4137   14.8057 C.ar    1  UNL1        0.0028
     24 C          64.1723   87.4949   15.8150 C.ar    1  UNL1        0.0295
     25 C          63.2415   87.2471   16.9649 C.ar    1  UNL1        0.1424
     26 F          62.9920   88.3282   17.9743 F       1  UNL1       -0.2041
     27 C          62.5602   85.9182   17.1055 C.ar    1  UNL1        0.0590
     28 C          62.8097   84.8370   16.0961 C.ar    1  UNL1        0.1408
     29 F          62.1284   83.5080   16.2366 F       1  UNL1       -0.2043
     30 C          64.2394   82.9224   12.9274 C.3     1  UNL1        0.1679
     31 N          63.4694   81.6371   12.9992 N.ar    1  UNL1       -0.2078
     32 C          63.0836   80.7742   11.8345 C.ar    1  UNL1        0.2216
     33 N          62.3257   79.5929   12.3637 N.ar    1  UNL1       -0.1048
     34 N          62.2430   79.7258   13.8556 N.ar    1  UNL1       -0.0226
     35 N          62.9499   80.9892   14.2483 N.ar    1  UNL1       -0.0428
@<TRIPOS>BOND
     1    19    20    1
     2    20    30    1
     3    30    31    1
     4    31    32   ar
     5    32    33   ar
     6    33    34   ar
     7    34    35   ar
     8    20    22    1
     9    22    23   ar
    10    23    24   ar
    11    24    25   ar
    12    25    26    1
    13    25    27   ar
    14    27    28   ar
    15    28    29    1
    16    20     1    1
    17     1     2    1
    18     1     3    1
    19     1     4    1
    20     4     5   ar
    21     5     6   ar
    22     6     7   ar
    23     7    10    1
    24    10    11    3
    25    11    12    1
    26    12    13   ar
    27    13    14   ar
    28    14    15   ar
    29    15    16    1
    30    15    17   ar
    31    17    18   ar
    32     7     8   ar
    33     8     9   ar
    34    35    31   ar
    35    28    22   ar
    36     9     4   ar
    37    18    12   ar
    38    19    21    1
@<TRIPOS>MOLECULE
*****
 35 38 0 0 0
SMALL
GASTEIGER

@<TRIPOS>ATOM
      1 C          62.0960   94.6785   -1.3409 C.3     1  UNL1        0.3254
      2 F          61.8239   93.2169   -1.1411 F       1  UNL1       -0.1949
      3 F          62.0140   96.1476   -1.6319 F       1  UNL1       -0.1949
      4 C          60.6661   94.8898   -1.7421 C.ar    1  UNL1        0.1218
      5 C          59.9320   93.8193   -2.4936 C.ar    1  UNL1        0.0208
      6 C          58.5021   94.0306   -2.8948 C.ar    1  UNL1        0.0112
      7 C          57.8065   95.3126   -2.5444 C.ar    1  UNL1        0.0611
      8 C          58.5407   96.3831   -1.7929 C.ar    1  UNL1        0.1068
      9 N          59.9705   96.1718   -1.3917 N.ar    1  UNL1       -0.2421
     10 C          56.3767   95.5240   -2.9456 C.1     1  UNL1       -0.0582
     11 C          54.9469   95.7353   -3.3467 C.1     1  UNL1       -0.0597
     12 C          53.5170   95.9467   -3.7479 C.ar    1  UNL1        0.0421
     13 C          52.4393   95.9583   -2.7047 C.ar    1  UNL1        0.0106
     14 C          51.0095   96.1697   -3.1058 C.ar    1  UNL1        0.0303
     15 C          50.6574   96.3695   -4.5501 C.ar    1  UNL1        0.1402
     16 F          49.2276   96.5809   -4.9513 F       1  UNL1       -0.2042
     17 C          51.7352   96.3580   -5.5933 C.ar    1  UNL1        0.0303
     18 C          53.1650   96.1466   -5.1922 C.ar    1  UNL1        0.0106
     19 O          64.9556   94.2557   -0.5386 O.3     1  UNL1       -0.3755
     20 C          63.5258   94.4671   -0.9397 C.3     1  UNL1        0.1932
     21 H          65.2071   93.3349   -0.7112 H       1  UNL1        0.2110
     22 C          63.8854   94.1873   -2.3688 C.ar    1  UNL1        0.0368
     23 C          63.6227   92.8326   -2.9570 C.ar    1  UNL1        0.0028
     24 C          63.9824   92.5529   -4.3861 C.ar    1  UNL1        0.0295
     25 C          64.6047   93.6278   -5.2271 C.ar    1  UNL1        0.1424
     26 F          64.9643   93.3481   -6.6562 F       1  UNL1       -0.2041
     27 C          64.8674   94.9825   -4.6390 C.ar    1  UNL1        0.0590
     28 C          64.5077   95.2622   -3.2098 C.ar    1  UNL1        0.1408
     29 F          64.7704   96.6169   -2.6218 F       1  UNL1       -0.2043
     30 C          63.1662   94.7468    0.4895 C.3     1  UNL1        0.1679
     31 N          63.0062   93.6129    1.4583 N.ar    1  UNL1       -0.2078
     32 C          61.7445   93.2405    2.1791 C.ar    1  UNL1        0.2216
     33 N          62.0382   92.0498    3.0427 N.ar    1  UNL1       -0.1048
     34 N          63.4815   91.6864    2.8557 N.ar    1  UNL1       -0.0226
     35 N          64.0797   92.6524    1.8765 N.ar    1  UNL1       -0.0428
@<TRIPOS>BOND
     1    19    20    1
     2    20    30    1
     3    30    31    1
     4    31    32   ar
     5    32    33   ar
     6    33    34   ar
     7    34    35   ar
     8    20    22    1
     9    22    23   ar
    10    23    24   ar
    11    24    25   ar
    12    25    26    1
    13    25    27   ar
    14    27    28   ar
    15    28    29    1
    16    20     1    1
    17     1     2    1
    18     1     3    1
    19     1     4    1
    20     4     5   ar
    21     5     6   ar
    22     6     7   ar
    23     7    10    1
    24    10    11    3
    25    11    12    1
    26    12    13   ar
    27    13    14   ar
    28    14    15   ar
    29    15    16    1
    30    15    17   ar
    31    17    18   ar
    32     7     8   ar
    33     8     9   ar
    34    35    31   ar
    35    28    22   ar
    36     9     4   ar
    37    18    12   ar
    38    19    21    1
@<TRIPOS>MOLECULE
*****
 35 38 0 0 0
SMALL
GASTEIGER

@<TRIPOS>ATOM
      1 C          62.9190   84.7034   13.1085 C.3     1  UNL1        0.3254
      2 F          61.6577   84.9116   13.8933 F       1  UNL1       -0.1949
      3 F          64.0123   84.7119   12.0816 F       1  UNL1       -0.1949
      4 C          62.3799   85.5728   12.0114 C.ar    1  UNL1        0.1218
      5 C          62.5358   87.0626   12.0899 C.ar    1  UNL1        0.0208
      6 C          61.9967   87.9320   10.9928 C.ar    1  UNL1        0.0112
      7 C          61.3016   87.3116    9.8173 C.ar    1  UNL1        0.0611
      8 C          61.1456   85.8217    9.7388 C.ar    1  UNL1        0.1068
      9 N          61.6848   84.9524   10.8359 N.ar    1  UNL1       -0.2421
     10 C          60.7624   88.1809    8.7202 C.1     1  UNL1       -0.0582
     11 C          60.2233   89.0502    7.6232 C.1     1  UNL1       -0.0597
     12 C          59.6841   89.9196    6.5261 C.ar    1  UNL1        0.0421
     13 C          60.6267   90.6362    5.6052 C.ar    1  UNL1        0.0106
     14 C          60.0875   91.5055    4.5082 C.ar    1  UNL1        0.0303
     15 C          58.6057   91.6583    4.3321 C.ar    1  UNL1        0.1402
     16 F          58.0665   92.5277    3.2350 F       1  UNL1       -0.2042
     17 C          57.6631   90.9417    5.2530 C.ar    1  UNL1        0.0303
     18 C          58.2023   90.0724    6.3500 C.ar    1  UNL1        0.0106
     19 O          63.9972   82.9647   15.3026 O.3     1  UNL1       -0.3755
     20 C          63.4581   83.8341   14.2055 C.3     1  UNL1        0.1932
     21 H          64.8550   83.3094   15.5962 H       1  UNL1        0.2110
     22 C          63.3614   84.9837   15.1641 C.ar    1  UNL1        0.0368
     23 C          62.3650   84.9442   16.2847 C.ar    1  UNL1        0.0028
     24 C          62.2683   86.0939   17.2432 C.ar    1  UNL1        0.0295
     25 C          63.1680   87.2831   17.0813 C.ar    1  UNL1        0.1424
     26 F          63.0714   88.4328   18.0398 F       1  UNL1       -0.2041
     27 C          64.1644   87.3227   15.9607 C.ar    1  UNL1        0.0590
     28 C          64.2611   86.1730   15.0021 C.ar    1  UNL1        0.1408
     29 F          65.2575   86.2126   13.8816 F       1  UNL1       -0.2043
     30 C          63.5548   82.6843   13.2470 C.3     1  UNL1        0.1679
     31 N          62.6520   81.4971   13.4063 N.ar    1  UNL1       -0.2078
     32 C          62.8534   80.1467   12.7851 C.ar    1  UNL1        0.2216
     33 N          61.7152   79.2667   13.2097 N.ar    1  UNL1       -0.1048
     34 N          60.8104   80.0734   14.0933 N.ar    1  UNL1       -0.0226
     35 N          61.3894   81.4518   14.2147 N.ar    1  UNL1       -0.0428
@<TRIPOS>BOND
     1    19    20    1
     2    20    30    1
     3    30    31    1
     4    31    32   ar
     5    32    33   ar
     6    33    34   ar
     7    34    35   ar
     8    20    22    1
     9    22    23   ar
    10    23    24   ar
    11    24    25   ar
    12    25    26    1
    13    25    27   ar
    14    27    28   ar
    15    28    29    1
    16    20     1    1
    17     1     2    1
    18     1     3    1
    19     1     4    1
    20     4     5   ar
    21     5     6   ar
    22     6     7   ar
    23     7    10    1
    24    10    11    3
    25    11    12    1
    26    12    13   ar
    27    13    14   ar
    28    14    15   ar
    29    15    16    1
    30    15    17   ar
    31    17    18   ar
    32     7     8   ar
    33     8     9   ar
    34    35    31   ar
    35    28    22   ar
    36     9     4   ar
    37    18    12   ar
    38    19    21    1
@<TRIPOS>MOLECULE
*****
 35 38 0 0 0
SMALL
GASTEIGER

@<TRIPOS>ATOM
      1 C          60.1222   93.9160    0.7590 C.3     1  UNL1        0.3254
      2 F          59.5197   95.0522    1.5312 F       1  UNL1       -0.1949
      3 F          60.7172   92.6135    0.3126 F       1  UNL1       -0.1949
      4 C          60.1654   93.0890    2.0098 C.ar    1  UNL1        0.1218
      5 C          61.4648   92.5033    2.4771 C.ar    1  UNL1        0.0208
      6 C          61.5081   91.6763    3.7278 C.ar    1  UNL1        0.0112
      7 C          60.2518   91.4350    4.5112 C.ar    1  UNL1        0.0611
      8 C          58.9523   92.0207    4.0438 C.ar    1  UNL1        0.1068
      9 N          58.9092   92.8477    2.7931 N.ar    1  UNL1       -0.2421
     10 C          60.2950   90.6080    5.7618 C.1     1  UNL1       -0.0582
     11 C          60.3382   89.7810    7.0125 C.1     1  UNL1       -0.0597
     12 C          60.3813   88.9540    8.2632 C.ar    1  UNL1        0.0421
     13 C          60.3482   89.6222    9.6057 C.ar    1  UNL1        0.0106
     14 C          60.3913   88.7952   10.8563 C.ar    1  UNL1        0.0303
     15 C          60.4676   87.2999   10.7645 C.ar    1  UNL1        0.1402
     16 F          60.5108   86.4729   12.0152 F       1  UNL1       -0.2042
     17 C          60.5008   86.6317    9.4220 C.ar    1  UNL1        0.0303
     18 C          60.4576   87.4588    8.1713 C.ar    1  UNL1        0.0106
     19 O          60.0356   95.5700   -1.7422 O.3     1  UNL1       -0.3755
     20 C          60.0789   94.7430   -0.4916 C.3     1  UNL1        0.1932
     21 H          60.3044   96.4794   -1.5379 H       1  UNL1        0.2110
     22 C          61.5637   94.9404   -0.4124 C.ar    1  UNL1        0.0368
     23 C          62.1395   95.9132    0.5737 C.ar    1  UNL1        0.0028
     24 C          63.6243   96.1106    0.6529 C.ar    1  UNL1        0.0295
     25 C          64.5334   95.3353   -0.2540 C.ar    1  UNL1        0.1424
     26 F          66.0182   95.5327   -0.1748 F       1  UNL1       -0.2041
     27 C          63.9577   94.3625   -1.2400 C.ar    1  UNL1        0.0590
     28 C          62.4728   94.1651   -1.3192 C.ar    1  UNL1        0.1408
     29 F          61.8971   93.1923   -2.3052 F       1  UNL1       -0.2043
     30 C          58.5940   94.5456   -0.5708 C.3     1  UNL1        0.1679
     31 N          58.0175   93.5824   -1.5657 N.ar    1  UNL1       -0.2078
     32 C          56.6397   92.9909   -1.5239 C.ar    1  UNL1        0.2216
     33 N          56.4882   92.0845   -2.7094 N.ar    1  UNL1       -0.1048
     34 N          57.7724   92.1159   -3.4839 N.ar    1  UNL1       -0.0226
     35 N          58.7175   93.0416   -2.7771 N.ar    1  UNL1       -0.0428
@<TRIPOS>BOND
     1    19    20    1
     2    20    30    1
     3    30    31    1
     4    31    32   ar
     5    32    33   ar
     6    33    34   ar
     7    34    35   ar
     8    20    22    1
     9    22    23   ar
    10    23    24   ar
    11    24    25   ar
    12    25    26    1
    13    25    27   ar
    14    27    28   ar
    15    28    29    1
    16    20     1    1
    17     1     2    1
    18     1     3    1
    19     1     4    1
    20     4     5   ar
    21     5     6   ar
    22     6     7   ar
    23     7    10    1
    24    10    11    3
    25    11    12    1
    26    12    13   ar
    27    13    14   ar
    28    14    15   ar
    29    15    16    1
    30    15    17   ar
    31    17    18   ar
    32     7     8   ar
    33     8     9   ar
    34    35    31   ar
    35    28    22   ar
    36     9     4   ar
    37    18    12   ar
    38    19    21    1
@<TRIPOS>MOLECULE
*****
 35 38 0 0 0
SMALL
GASTEIGER

@<TRIPOS>ATOM
      1 C          61.6418   94.5775   -2.4670 C.3     1  UNL1        0.3254
      2 F          61.6101   93.3626   -3.3462 F       1  UNL1       -0.1949
      3 F          61.3220   95.8176   -1.6860 F       1  UNL1       -0.1949
      4 C          60.1935   94.8306   -2.7646 C.ar    1  UNL1        0.1218
      5 C          59.2186   93.6906   -2.7699 C.ar    1  UNL1        0.0208
      6 C          57.7703   93.9437   -3.0675 C.ar    1  UNL1        0.0112
      7 C          57.2969   95.3367   -3.3598 C.ar    1  UNL1        0.0611
      8 C          58.2719   96.4767   -3.3545 C.ar    1  UNL1        0.1068
      9 N          59.7201   96.2236   -3.0569 N.ar    1  UNL1       -0.2421
     10 C          55.8487   95.5898   -3.6573 C.1     1  UNL1       -0.0582
     11 C          54.4005   95.8429   -3.9549 C.1     1  UNL1       -0.0597
     12 C          52.9522   96.0960   -4.2525 C.ar    1  UNL1        0.0421
     13 C          52.5078   96.3377   -5.6645 C.ar    1  UNL1        0.0106
     14 C          51.0596   96.5908   -5.9620 C.ar    1  UNL1        0.0303
     15 C          50.0558   96.6022   -4.8474 C.ar    1  UNL1        0.1402
     16 F          48.6075   96.8553   -5.1450 F       1  UNL1       -0.2042
     17 C          50.5002   96.3604   -3.4354 C.ar    1  UNL1        0.0303
     18 C          51.9485   96.1073   -3.1379 C.ar    1  UNL1        0.0106
     19 O          64.5382   94.0714   -1.8719 O.3     1  UNL1       -0.3755
     20 C          63.0900   94.3245   -2.1695 C.3     1  UNL1        0.1932
     21 H          64.8295   94.6607   -1.1586 H       1  UNL1        0.2110
     22 C          62.7245   93.8498   -0.7943 C.ar    1  UNL1        0.0368
     23 C          61.8825   92.6200   -0.6245 C.ar    1  UNL1        0.0028
     24 C          61.5170   92.1453    0.7506 C.ar    1  UNL1        0.0295
     25 C          61.9935   92.9003    1.9560 C.ar    1  UNL1        0.1424
     26 F          61.6280   92.4256    3.3311 F       1  UNL1       -0.2041
     27 C          62.8354   94.1300    1.7862 C.ar    1  UNL1        0.0590
     28 C          63.2010   94.6048    0.4110 C.ar    1  UNL1        0.1408
     29 F          64.0429   95.8345    0.2413 F       1  UNL1       -0.2043
     30 C          63.4555   94.7992   -3.5447 C.3     1  UNL1        0.1679
     31 N          64.3474   93.9635   -4.4142 N.ar    1  UNL1       -0.2078
     32 C          65.1500   94.4534   -5.5829 C.ar    1  UNL1        0.2216
     33 N          65.8919   93.2838   -6.1587 N.ar    1  UNL1       -0.1048
     34 N          65.5478   92.0710   -5.3458 N.ar    1  UNL1       -0.0226
     35 N          64.5933   92.4911   -4.2677 N.ar    1  UNL1       -0.0428
@<TRIPOS>BOND
     1    19    20    1
     2    20    30    1
     3    30    31    1
     4    31    32   ar
     5    32    33   ar
     6    33    34   ar
     7    34    35   ar
     8    20    22    1
     9    22    23   ar
    10    23    24   ar
    11    24    25   ar
    12    25    26    1
    13    25    27   ar
    14    27    28   ar
    15    28    29    1
    16    20     1    1
    17     1     2    1
    18     1     3    1
    19     1     4    1
    20     4     5   ar
    21     5     6   ar
    22     6     7   ar
    23     7    10    1
    24    10    11    3
    25    11    12    1
    26    12    13   ar
    27    13    14   ar
    28    14    15   ar
    29    15    16    1
    30    15    17   ar
    31    17    18   ar
    32     7     8   ar
    33     8     9   ar
    34    35    31   ar
    35    28    22   ar
    36     9     4   ar
    37    18    12   ar
    38    19    21    1
@<TRIPOS>MOLECULE
*****
 35 38 0 0 0
SMALL
GASTEIGER

@<TRIPOS>ATOM
      1 C          60.3676   94.2122    0.4083 C.3     1  UNL1        0.3254
      2 F          61.1382   93.1410   -0.3050 F       1  UNL1       -0.1949
      3 F          59.6163   95.0486    1.4012 F       1  UNL1       -0.1949
      4 C          60.3523   93.3733    1.6517 C.ar    1  UNL1        0.1218
      5 C          61.6218   92.7503    2.1518 C.ar    1  UNL1        0.0208
      6 C          61.6065   91.9114    3.3952 C.ar    1  UNL1        0.0112
      7 C          60.3216   91.6955    4.1385 C.ar    1  UNL1        0.0611
      8 C          59.0521   92.3186    3.6384 C.ar    1  UNL1        0.1068
      9 N          59.0674   93.1574    2.3950 N.ar    1  UNL1       -0.2421
     10 C          60.3063   90.8566    5.3819 C.1     1  UNL1       -0.0582
     11 C          60.2909   90.0178    6.6252 C.1     1  UNL1       -0.0597
     12 C          60.2755   89.1789    7.8687 C.ar    1  UNL1        0.0421
     13 C          60.7183   89.7669    9.1756 C.ar    1  UNL1        0.0106
     14 C          60.7029   88.9280   10.4190 C.ar    1  UNL1        0.0303
     15 C          60.2446   87.5011   10.3554 C.ar    1  UNL1        0.1402
     16 F          60.2292   86.6622   11.5988 F       1  UNL1       -0.2042
     17 C          59.8018   86.9131    9.0485 C.ar    1  UNL1        0.0303
     18 C          59.8172   87.7520    7.8051 C.ar    1  UNL1        0.0106
     19 O          60.3983   95.8899   -2.0785 O.3     1  UNL1       -0.3755
     20 C          60.3830   95.0511   -0.8351 C.3     1  UNL1        0.1932
     21 H          60.6295   95.3352   -2.8399 H       1  UNL1        0.2110
     22 C          59.2361   94.2564   -1.3854 C.ar    1  UNL1        0.0368
     23 C          57.8812   94.3554   -0.7492 C.ar    1  UNL1        0.0028
     24 C          56.7343   93.5606   -1.2995 C.ar    1  UNL1        0.0295
     25 C          56.9421   92.6668   -2.4861 C.ar    1  UNL1        0.1424
     26 F          55.7952   91.8721   -3.0364 F       1  UNL1       -0.2041
     27 C          58.2968   92.5678   -3.1223 C.ar    1  UNL1        0.0590
     28 C          59.4438   93.3626   -2.5720 C.ar    1  UNL1        0.1408
     29 F          60.7986   93.2636   -3.2083 F       1  UNL1       -0.2043
     30 C          61.5300   95.8459   -0.2848 C.3     1  UNL1        0.1679
     31 N          62.8971   95.7043   -0.8854 N.ar    1  UNL1       -0.2078
     32 C          64.1933   96.0647   -0.2219 C.ar    1  UNL1        0.2216
     33 N          65.3054   95.7605   -1.1813 N.ar    1  UNL1       -0.1048
     34 N          64.6966   95.2121   -2.4378 N.ar    1  UNL1       -0.0226
     35 N          63.2082   95.1773   -2.2549 N.ar    1  UNL1       -0.0428
@<TRIPOS>BOND
     1    19    20    1
     2    20    30    1
     3    30    31    1
     4    31    32   ar
     5    32    33   ar
     6    33    34   ar
     7    34    35   ar
     8    20    22    1
     9    22    23   ar
    10    23    24   ar
    11    24    25   ar
    12    25    26    1
    13    25    27   ar
    14    27    28   ar
    15    28    29    1
    16    20     1    1
    17     1     2    1
    18     1     3    1
    19     1     4    1
    20     4     5   ar
    21     5     6   ar
    22     6     7   ar
    23     7    10    1
    24    10    11    3
    25    11    12    1
    26    12    13   ar
    27    13    14   ar
    28    14    15   ar
    29    15    16    1
    30    15    17   ar
    31    17    18   ar
    32     7     8   ar
    33     8     9   ar
    34    35    31   ar
    35    28    22   ar
    36     9     4   ar
    37    18    12   ar
    38    19    21    1
