@<TRIPOS>MOLECULE
*****
 39 42 0 0 0
SMALL
GASTEIGER

@<TRIPOS>ATOM
      1 C          61.9448   88.4950   11.0632 C.3     1  UNL1        0.0808
      2 C          63.6775   89.3038   12.8220 C.ar    1  UNL1        0.2211
      3 N          64.7008   90.3036   13.2731 N.ar    1  UNL1       -0.2119
      4 C          65.0145   91.4943   12.4165 C.ar    1  UNL1        0.0844
      5 C          66.0376   92.4941   12.8676 C.ar    1  UNL1        0.0197
      6 C          66.3513   93.6848   12.0110 C.ar    1  UNL1        0.0082
      7 C          65.6418   93.8758   10.7033 C.ar    1  UNL1        0.0347
      8 BR         65.9555   95.0665    9.8468 Br      1  UNL1       -0.0490
      9 C          64.6186   92.8760   10.2522 C.ar    1  UNL1        0.0082
     10 C          64.3049   91.6853   11.1088 C.ar    1  UNL1        0.0181
     11 C          63.2817   90.6855   10.6577 C.ar    1  UNL1        0.0023
     12 C          62.9680   89.4948   11.5143 C.ar    1  UNL1        0.0375
     13 C          64.3420   87.6614   14.7223 C.3     1  UNL1        0.2542
     14 O          63.3638   88.1131   13.6786 O.3     1  UNL1       -0.4563
     15 C          62.3810   87.2245   10.3958 C.ar    1  UNL1        0.0245
     16 C          62.8470   87.2479    8.9702 C.ar    1  UNL1        0.0200
     17 C          63.2833   85.9773    8.3028 C.ar    1  UNL1        0.1019
     18 N          63.2534   84.6833    9.0610 N.ar    1  UNL1       -0.2076
     19 C          62.7874   84.6600   10.4866 C.ar    1  UNL1        0.2598
     20 C          62.3512   85.9305   11.1539 C.ar    1  UNL1        0.1879
     21 O          62.7576   83.3661   11.2447 O.3     1  UNL1       -0.4541
     22 C          63.8563   82.3621   11.0584 C.3     1  UNL1        0.2543
     23 O          61.8851   85.9072   12.5795 O.3     1  UNL1       -0.4670
     24 C          62.4271   84.8802   13.5290 C.3     1  UNL1        0.2527
     25 C          60.4854   88.7658   11.2794 C.3     1  UNL1        0.1159
     26 O          60.7750   89.2052   12.6840 O.3     1  UNL1       -0.3820
     27 H          61.6451   89.6329   12.7161 H       1  UNL1        0.2107
     28 C          60.1957   88.3264    9.8748 C.ar    1  UNL1        0.0021
     29 C          59.9511   86.8765    9.5779 C.ar    1  UNL1       -0.0020
     30 C          59.6615   86.4371    8.1732 C.ar    1  UNL1       -0.0006
     31 C          59.6164   87.4475    7.0655 C.ar    1  UNL1       -0.0043
     32 C          59.8609   88.8974    7.3624 C.ar    1  UNL1       -0.0221
     33 C          59.8158   89.9078    6.2546 C.3     1  UNL1        0.0310
     34 C          60.1506   89.3368    8.7670 C.ar    1  UNL1       -0.0063
     35 C          59.0260   89.0366   11.4956 C.3     1  UNL1        0.0491
     36 C          58.5501   89.5753   12.8122 C.3     1  UNL1        0.0750
     37 N          58.0258   88.6390   13.8603 N.3     1  UNL1       -0.2702
     38 C          56.7257   87.9229   13.6435 C.3     1  UNL1        0.0897
     39 C          58.8015   88.4187   15.1251 C.3     1  UNL1        0.0897
@<TRIPOS>BOND
     1    13    14    1
     2    14     2    1
     3     2     3   ar
     4     3     4   ar
     5     4     5   ar
     6     5     6   ar
     7     6     7   ar
     8     7     8    1
     9     7     9   ar
    10     9    10   ar
    11    10    11   ar
    12    11    12   ar
    13     1    12    1
    14     1    15    1
    15    15    16   ar
    16    16    17   ar
    17    17    18   ar
    18    18    19   ar
    19    19    21    1
    20    21    22    1
    21    19    20   ar
    22    20    23    1
    23    23    24    1
    24     1    25    1
    25    25    26    1
    26    25    35    1
    27    35    36    1
    28    36    37    1
    29    37    38    1
    30    37    39    1
    31    25    28    1
    32    28    29   ar
    33    29    30   ar
    34    30    31   ar
    35    31    32   ar
    36    32    33    1
    37    32    34   ar
    38    12     2   ar
    39    20    15   ar
    40    34    28   ar
    41    10     4   ar
    42    26    27    1
@<TRIPOS>MOLECULE
*****
 39 42 0 0 0
SMALL
GASTEIGER

@<TRIPOS>ATOM
      1 C          60.0704   94.5420   -1.4917 C.3     1  UNL1        0.0808
      2 C          59.2079   95.8619   -3.5567 C.ar    1  UNL1        0.2211
      3 N          58.0716   96.4403   -4.3469 N.ar    1  UNL1       -0.2119
      4 C          56.6615   96.2771   -3.8623 C.ar    1  UNL1        0.0844
      5 C          55.5252   96.8554   -4.6525 C.ar    1  UNL1        0.0197
      6 C          54.1151   96.6921   -4.1678 C.ar    1  UNL1        0.0082
      7 C          53.8412   95.9506   -2.8931 C.ar    1  UNL1        0.0347
      8 BR         52.4310   95.7873   -2.4085 Br      1  UNL1       -0.0490
      9 C          54.9775   95.3722   -2.1029 C.ar    1  UNL1        0.0082
     10 C          56.3876   95.5354   -2.5875 C.ar    1  UNL1        0.0181
     11 C          57.5239   94.9571   -1.7973 C.ar    1  UNL1        0.0023
     12 C          58.9341   95.1204   -2.2820 C.ar    1  UNL1        0.0375
     13 C          60.8824   96.3756   -5.4757 C.3     1  UNL1        0.2542
     14 O          60.6181   96.0252   -4.0413 O.3     1  UNL1       -0.4563
     15 C          60.0885   94.6739    0.0024 C.ar    1  UNL1        0.0245
     16 C          60.2203   96.0280    0.6342 C.ar    1  UNL1        0.0200
     17 C          60.2384   96.1598    2.1283 C.ar    1  UNL1        0.1019
     18 N          60.1248   94.9376    2.9905 N.ar    1  UNL1       -0.2076
     19 C          59.9931   93.5836    2.3587 C.ar    1  UNL1        0.2598
     20 C          59.9749   93.4517    0.8646 C.ar    1  UNL1        0.1879
     21 O          59.8795   92.3615    3.2209 O.3     1  UNL1       -0.4541
     22 C          59.2784   92.4638    4.5914 C.3     1  UNL1        0.2543
     23 O          59.8432   92.0978    0.2327 O.3     1  UNL1       -0.4670
     24 C          61.0005   91.1436    0.2555 C.3     1  UNL1        0.2527
     25 C          61.1884   93.8318   -2.1956 C.3     1  UNL1        0.1159
     26 O          60.1887   93.0577   -3.0026 O.3     1  UNL1       -0.3820
     27 H          59.4095   93.6109   -3.1690 H       1  UNL1        0.2107
     28 C          62.1882   94.6058   -1.3886 C.ar    1  UNL1        0.0021
     29 C          62.3454   96.0818   -1.6052 C.ar    1  UNL1       -0.0020
     30 C          63.3453   96.8559   -0.7981 C.ar    1  UNL1       -0.0006
     31 C          64.1877   96.1540    0.2254 C.ar    1  UNL1       -0.0043
     32 C          64.0304   94.6781    0.4419 C.ar    1  UNL1       -0.0221
     33 C          64.8729   93.9762    1.4655 C.3     1  UNL1        0.0310
     34 C          63.0307   93.9040   -0.3650 C.ar    1  UNL1       -0.0063
     35 C          62.3065   93.1215   -2.8995 C.3     1  UNL1        0.0491
     36 C          62.6565   93.4878   -4.3113 C.3     1  UNL1        0.0750
     37 N          64.0888   93.7175   -4.6935 N.3     1  UNL1       -0.2702
     38 C          64.6581   95.1050   -4.6695 C.3     1  UNL1        0.0897
     39 C          64.9516   92.5597   -5.0996 C.3     1  UNL1        0.0897
@<TRIPOS>BOND
     1    13    14    1
     2    14     2    1
     3     2     3   ar
     4     3     4   ar
     5     4     5   ar
     6     5     6   ar
     7     6     7   ar
     8     7     8    1
     9     7     9   ar
    10     9    10   ar
    11    10    11   ar
    12    11    12   ar
    13     1    12    1
    14     1    15    1
    15    15    16   ar
    16    16    17   ar
    17    17    18   ar
    18    18    19   ar
    19    19    21    1
    20    21    22    1
    21    19    20   ar
    22    20    23    1
    23    23    24    1
    24     1    25    1
    25    25    26    1
    26    25    35    1
    27    35    36    1
    28    36    37    1
    29    37    38    1
    30    37    39    1
    31    25    28    1
    32    28    29   ar
    33    29    30   ar
    34    30    31   ar
    35    31    32   ar
    36    32    33    1
    37    32    34   ar
    38    12     2   ar
    39    20    15   ar
    40    34    28   ar
    41    10     4   ar
    42    26    27    1
@<TRIPOS>MOLECULE
*****
 39 42 0 0 0
SMALL
GASTEIGER

@<TRIPOS>ATOM
      1 C          62.6915   93.6026   -2.2264 C.3     1  UNL1        0.0808
      2 C          61.1062   95.6584   -2.3293 C.ar    1  UNL1        0.2211
      3 N          59.8303   96.2928   -2.7981 N.ar    1  UNL1       -0.2119
      4 C          58.8639   95.5058   -3.6327 C.ar    1  UNL1        0.0844
      5 C          57.5880   96.1402   -4.1015 C.ar    1  UNL1        0.0197
      6 C          56.6216   95.3532   -4.9361 C.ar    1  UNL1        0.0082
      7 C          56.9310   93.9318   -5.3020 C.ar    1  UNL1        0.0347
      8 BR         55.9646   93.1448   -6.1367 Br      1  UNL1       -0.0490
      9 C          58.2069   93.2973   -4.8332 C.ar    1  UNL1        0.0082
     10 C          59.1733   94.0844   -3.9986 C.ar    1  UNL1        0.0181
     11 C          60.4492   93.4500   -3.5298 C.ar    1  UNL1        0.0023
     12 C          61.4156   94.2370   -2.6951 C.ar    1  UNL1        0.0375
     13 C          61.7607   96.7317   -0.0555 C.3     1  UNL1        0.2542
     14 O          62.0726   96.4454   -1.4946 O.3     1  UNL1       -0.4563
     15 C          63.0356   93.6002   -0.7664 C.ar    1  UNL1        0.0245
     16 C          64.2991   94.2554   -0.2925 C.ar    1  UNL1        0.0200
     17 C          64.6432   94.2529    1.1675 C.ar    1  UNL1        0.1019
     18 N          63.7238   93.5953    2.1536 N.ar    1  UNL1       -0.2076
     19 C          62.4604   92.9402    1.6798 C.ar    1  UNL1        0.2598
     20 C          62.1163   92.9426    0.2198 C.ar    1  UNL1        0.1879
     21 O          61.5411   92.2827    2.6659 O.3     1  UNL1       -0.4541
     22 C          60.2949   92.9868    3.1145 C.3     1  UNL1        0.2543
     23 O          60.8529   92.2875   -0.2541 O.3     1  UNL1       -0.4670
     24 C          59.5371   92.9889   -0.0899 C.3     1  UNL1        0.2527
     25 C          63.6232   92.9706   -3.2176 C.3     1  UNL1        0.1159
     26 O          63.5476   91.6763   -2.4633 O.3     1  UNL1       -0.3820
     27 H          62.6640   91.5795   -2.0750 H       1  UNL1        0.2107
     28 C          63.6988   94.2650   -3.9718 C.ar    1  UNL1        0.0021
     29 C          64.6889   95.3148   -3.5625 C.ar    1  UNL1       -0.0020
     30 C          64.7644   96.6093   -4.3168 C.ar    1  UNL1       -0.0006
     31 C          63.8499   96.8538   -5.4803 C.ar    1  UNL1       -0.0043
     32 C          62.8598   95.8039   -5.8896 C.ar    1  UNL1       -0.0221
     33 C          61.9452   96.0485   -7.0532 C.3     1  UNL1        0.0310
     34 C          62.7842   94.5096   -5.1354 C.ar    1  UNL1       -0.0063
     35 C          64.5549   92.3387   -4.2087 C.3     1  UNL1        0.0491
     36 C          64.1150   92.1369   -5.6285 C.3     1  UNL1        0.0750
     37 N          65.1241   92.1685   -6.7380 N.3     1  UNL1       -0.2702
     38 C          65.6172   90.8862   -7.3401 C.3     1  UNL1        0.0897
     39 C          65.6400   93.4825   -7.2453 C.3     1  UNL1        0.0897
@<TRIPOS>BOND
     1    13    14    1
     2    14     2    1
     3     2     3   ar
     4     3     4   ar
     5     4     5   ar
     6     5     6   ar
     7     6     7   ar
     8     7     8    1
     9     7     9   ar
    10     9    10   ar
    11    10    11   ar
    12    11    12   ar
    13     1    12    1
    14     1    15    1
    15    15    16   ar
    16    16    17   ar
    17    17    18   ar
    18    18    19   ar
    19    19    21    1
    20    21    22    1
    21    19    20   ar
    22    20    23    1
    23    23    24    1
    24     1    25    1
    25    25    26    1
    26    25    35    1
    27    35    36    1
    28    36    37    1
    29    37    38    1
    30    37    39    1
    31    25    28    1
    32    28    29   ar
    33    29    30   ar
    34    30    31   ar
    35    31    32   ar
    36    32    33    1
    37    32    34   ar
    38    12     2   ar
    39    20    15   ar
    40    34    28   ar
    41    10     4   ar
    42    26    27    1
@<TRIPOS>MOLECULE
*****
 39 42 0 0 0
SMALL
GASTEIGER

@<TRIPOS>ATOM
      1 C          62.0455   87.9274   10.6883 C.3     1  UNL1        0.0808
      2 C          63.3618   87.5983   12.9039 C.ar    1  UNL1        0.2211
      3 N          63.8704   86.6991   13.9916 N.ar    1  UNL1       -0.2119
      4 C          63.5712   85.2298   13.9511 C.ar    1  UNL1        0.0844
      5 C          64.0797   84.3307   15.0387 C.ar    1  UNL1        0.0197
      6 C          63.7805   82.8614   14.9982 C.ar    1  UNL1        0.0082
      7 C          62.9728   82.2912   13.8702 C.ar    1  UNL1        0.0347
      8 BR         62.6736   80.8219   13.8297 Br      1  UNL1       -0.0490
      9 C          62.4642   83.1904   12.7825 C.ar    1  UNL1        0.0082
     10 C          62.7634   84.6597   12.8230 C.ar    1  UNL1        0.0181
     11 C          62.2549   85.5589   11.7355 C.ar    1  UNL1        0.0023
     12 C          62.5541   87.0282   11.7759 C.ar    1  UNL1        0.0375
     13 C          63.5595   89.8183   14.2391 C.3     1  UNL1        0.2542
     14 O          63.6610   89.0676   12.9444 O.3     1  UNL1       -0.4563
     15 C          61.2469   87.3556    9.5546 C.ar    1  UNL1        0.0245
     16 C          59.8146   87.7602    9.3672 C.ar    1  UNL1        0.0200
     17 C          59.0159   87.1884    8.2336 C.ar    1  UNL1        0.1019
     18 N          59.6495   86.2119    7.2874 N.ar    1  UNL1       -0.2076
     19 C          61.0816   85.8073    7.4749 C.ar    1  UNL1        0.2598
     20 C          61.8803   86.3791    8.6085 C.ar    1  UNL1        0.1879
     21 O          61.7151   84.8308    6.5287 O.3     1  UNL1       -0.4541
     22 C          60.8552   83.9849    5.6371 C.3     1  UNL1        0.2543
     23 O          63.3125   85.9745    8.7960 O.3     1  UNL1       -0.4670
     24 C          63.6628   84.5310    9.0052 C.3     1  UNL1        0.2527
     25 C          62.3357   89.3983   10.7343 C.3     1  UNL1        0.1159
     26 O          63.7156   89.1427   10.2049 O.3     1  UNL1       -0.3820
     27 H          63.6942   88.3861    9.5982 H       1  UNL1        0.2107
     28 C          60.9557   89.6539   11.2636 C.ar    1  UNL1        0.0021
     29 C          60.1460   90.7965   10.7262 C.ar    1  UNL1       -0.0020
     30 C          58.7659   91.0521   11.2556 C.ar    1  UNL1       -0.0006
     31 C          58.1957   90.1652   12.3224 C.ar    1  UNL1       -0.0043
     32 C          59.0054   89.0226   12.8599 C.ar    1  UNL1       -0.0221
     33 C          58.4351   88.1356   13.9267 C.3     1  UNL1        0.0310
     34 C          60.3854   88.7670   12.3305 C.ar    1  UNL1       -0.0063
     35 C          62.6258   90.8692   10.7803 C.3     1  UNL1        0.0491
     36 C          63.8608   91.4110   10.1235 C.3     1  UNL1        0.0750
     37 N          64.8320   92.2346   10.9163 N.3     1  UNL1       -0.2702
     38 C          64.8996   92.0856   12.4074 C.3     1  UNL1        0.0897
     39 C          65.7356   93.2071   10.2181 C.3     1  UNL1        0.0897
@<TRIPOS>BOND
     1    13    14    1
     2    14     2    1
     3     2     3   ar
     4     3     4   ar
     5     4     5   ar
     6     5     6   ar
     7     6     7   ar
     8     7     8    1
     9     7     9   ar
    10     9    10   ar
    11    10    11   ar
    12    11    12   ar
    13     1    12    1
    14     1    15    1
    15    15    16   ar
    16    16    17   ar
    17    17    18   ar
    18    18    19   ar
    19    19    21    1
    20    21    22    1
    21    19    20   ar
    22    20    23    1
    23    23    24    1
    24     1    25    1
    25    25    26    1
    26    25    35    1
    27    35    36    1
    28    36    37    1
    29    37    38    1
    30    37    39    1
    31    25    28    1
    32    28    29   ar
    33    29    30   ar
    34    30    31   ar
    35    31    32   ar
    36    32    33    1
    37    32    34   ar
    38    12     2   ar
    39    20    15   ar
    40    34    28   ar
    41    10     4   ar
    42    26    27    1
@<TRIPOS>MOLECULE
*****
 39 42 0 0 0
SMALL
GASTEIGER

@<TRIPOS>ATOM
      1 C          62.4727   86.0318   12.4403 C.3     1  UNL1        0.0808
      2 C          63.7962   87.1342   14.3853 C.ar    1  UNL1        0.2211
      3 N          64.5407   88.3084   14.9484 N.ar    1  UNL1       -0.2119
      4 C          64.7060   89.5544   14.1297 C.ar    1  UNL1        0.0844
      5 C          65.4504   90.7286   14.6928 C.ar    1  UNL1        0.0197
      6 C          65.6157   91.9745   13.8741 C.ar    1  UNL1        0.0082
      7 C          65.0366   92.0463   12.4923 C.ar    1  UNL1        0.0347
      8 BR         65.2020   93.2922   11.6735 Br      1  UNL1       -0.0490
      9 C          64.2922   90.8720   11.9291 C.ar    1  UNL1        0.0082
     10 C          64.1269   89.6261   12.7478 C.ar    1  UNL1        0.0181
     11 C          63.3824   88.4519   12.1847 C.ar    1  UNL1        0.0023
     12 C          63.2171   87.2060   13.0035 C.ar    1  UNL1        0.0375
     13 C          63.4900   85.9834   16.6944 C.3     1  UNL1        0.2542
     14 O          63.6309   85.8883   15.2040 O.3     1  UNL1       -0.4563
     15 C          62.1255   85.9934   10.9815 C.ar    1  UNL1        0.0245
     16 C          63.0299   85.2895   10.0137 C.ar    1  UNL1        0.0200
     17 C          62.6828   85.2511    8.5549 C.ar    1  UNL1        0.1019
     18 N          61.4313   85.9166    8.0640 N.ar    1  UNL1       -0.2076
     19 C          60.5270   86.6205    9.0318 C.ar    1  UNL1        0.2598
     20 C          60.8742   86.6589   10.4906 C.ar    1  UNL1        0.1879
     21 O          59.2756   87.2860    8.5409 O.3     1  UNL1       -0.4541
     22 C          59.3586   88.3708    7.5082 C.3     1  UNL1        0.2543
     23 O          59.9699   87.3628   11.4585 O.3     1  UNL1       -0.4670
     24 C          59.8877   88.8606   11.4548 C.3     1  UNL1        0.2527
     25 C          62.0754   84.8960   13.3359 C.3     1  UNL1        0.1159
     26 O          61.1649   85.8141   14.0963 O.3     1  UNL1       -0.3820
     27 H          60.7953   86.4765   13.4917 H       1  UNL1        0.2107
     28 C          62.9859   83.9780   12.5756 C.ar    1  UNL1        0.0021
     29 C          64.4733   84.1408   12.6805 C.ar    1  UNL1       -0.0020
     30 C          65.3838   83.2227   11.9201 C.ar    1  UNL1       -0.0006
     31 C          64.8068   82.1418   11.0549 C.ar    1  UNL1       -0.0043
     32 C          63.3194   81.9789   10.9499 C.ar    1  UNL1       -0.0221
     33 C          62.7425   80.8980   10.0846 C.3     1  UNL1        0.0310
     34 C          62.4089   82.8970   11.7102 C.ar    1  UNL1       -0.0063
     35 C          61.6781   83.7602   14.2315 C.3     1  UNL1        0.0491
     36 C          62.6917   82.7284   14.6288 C.3     1  UNL1        0.0750
     37 N          62.4380   81.2782   14.3412 N.3     1  UNL1       -0.2702
     38 C          63.5915   80.3402   14.1417 C.3     1  UNL1        0.0897
     39 C          61.0310   80.7660   14.2532 C.3     1  UNL1        0.0897
@<TRIPOS>BOND
     1    13    14    1
     2    14     2    1
     3     2     3   ar
     4     3     4   ar
     5     4     5   ar
     6     5     6   ar
     7     6     7   ar
     8     7     8    1
     9     7     9   ar
    10     9    10   ar
    11    10    11   ar
    12    11    12   ar
    13     1    12    1
    14     1    15    1
    15    15    16   ar
    16    16    17   ar
    17    17    18   ar
    18    18    19   ar
    19    19    21    1
    20    21    22    1
    21    19    20   ar
    22    20    23    1
    23    23    24    1
    24     1    25    1
    25    25    26    1
    26    25    35    1
    27    35    36    1
    28    36    37    1
    29    37    38    1
    30    37    39    1
    31    25    28    1
    32    28    29   ar
    33    29    30   ar
    34    30    31   ar
    35    31    32   ar
    36    32    33    1
    37    32    34   ar
    38    12     2   ar
    39    20    15   ar
    40    34    28   ar
    41    10     4   ar
    42    26    27    1
@<TRIPOS>MOLECULE
*****
 39 42 0 0 0
SMALL
GASTEIGER

@<TRIPOS>ATOM
      1 C          56.9910   93.3931   -4.1302 C.3     1  UNL1        0.0808
      2 C          59.4646   94.0576   -4.5659 C.ar    1  UNL1        0.2211
      3 N          60.8800   94.1834   -4.0852 N.ar    1  UNL1       -0.2119
      4 C          61.2370   93.7706   -2.6881 C.ar    1  UNL1        0.0844
      5 C          62.6523   93.8964   -2.2073 C.ar    1  UNL1        0.0197
      6 C          63.0093   93.4836   -0.8102 C.ar    1  UNL1        0.0082
      7 C          61.9511   92.9450    0.1063 C.ar    1  UNL1        0.0347
      8 BR         62.3081   92.5322    1.5035 Br      1  UNL1       -0.0490
      9 C          60.5357   92.8192   -0.3744 C.ar    1  UNL1        0.0082
     10 C          60.1787   93.2320   -1.7716 C.ar    1  UNL1        0.0181
     11 C          58.7634   93.1061   -2.2523 C.ar    1  UNL1        0.0023
     12 C          58.4064   93.5189   -3.6495 C.ar    1  UNL1        0.0375
     13 C          59.7751   95.6598   -6.5875 C.3     1  UNL1        0.2542
     14 O          59.1076   94.4704   -5.9631 O.3     1  UNL1       -0.4563
     15 C          56.2891   92.0695   -4.0572 C.ar    1  UNL1        0.0245
     16 C          56.0292   91.4308   -2.7250 C.ar    1  UNL1        0.0200
     17 C          55.3273   90.1072   -2.6520 C.ar    1  UNL1        0.1019
     18 N          54.8852   89.4223   -3.9112 N.ar    1  UNL1       -0.2076
     19 C          55.1450   90.0610   -5.2433 C.ar    1  UNL1        0.2598
     20 C          55.8470   91.3846   -5.3163 C.ar    1  UNL1        0.1879
     21 O          54.7029   89.3761   -6.5024 O.3     1  UNL1       -0.4541
     22 C          53.2571   89.3999   -6.9012 C.3     1  UNL1        0.2543
     23 O          56.1068   92.0233   -6.6484 O.3     1  UNL1       -0.4670
     24 C          54.9574   92.4267   -7.5237 C.3     1  UNL1        0.2527
     25 C          56.2777   94.5908   -4.6838 C.3     1  UNL1        0.1159
     26 O          56.3608   94.0035   -6.0615 O.3     1  UNL1       -0.3820
     27 H          56.3019   93.0369   -6.0050 H       1  UNL1        0.2107
     28 C          56.1946   95.1782   -3.3061 C.ar    1  UNL1        0.0021
     29 C          54.8787   95.2213   -2.5873 C.ar    1  UNL1       -0.0020
     30 C          54.7957   95.8087   -1.2095 C.ar    1  UNL1       -0.0006
     31 C          56.0284   96.3529   -0.5506 C.ar    1  UNL1       -0.0043
     32 C          57.3443   96.3097   -1.2695 C.ar    1  UNL1       -0.0221
     33 C          58.5771   96.8539   -0.6105 C.3     1  UNL1        0.0310
     34 C          57.4274   95.7224   -2.6471 C.ar    1  UNL1       -0.0063
     35 C          55.5644   95.7886   -5.2374 C.3     1  UNL1        0.0491
     36 C          54.4978   95.6120   -6.2772 C.3     1  UNL1        0.0750
     37 N          53.1257   96.1730   -6.0471 N.3     1  UNL1       -0.2702
     38 C          52.4883   96.0640   -4.6937 C.3     1  UNL1        0.0897
     39 C          52.3913   96.8429   -7.1703 C.3     1  UNL1        0.0897
@<TRIPOS>BOND
     1    13    14    1
     2    14     2    1
     3     2     3   ar
     4     3     4   ar
     5     4     5   ar
     6     5     6   ar
     7     6     7   ar
     8     7     8    1
     9     7     9   ar
    10     9    10   ar
    11    10    11   ar
    12    11    12   ar
    13     1    12    1
    14     1    15    1
    15    15    16   ar
    16    16    17   ar
    17    17    18   ar
    18    18    19   ar
    19    19    21    1
    20    21    22    1
    21    19    20   ar
    22    20    23    1
    23    23    24    1
    24     1    25    1
    25    25    26    1
    26    25    35    1
    27    35    36    1
    28    36    37    1
    29    37    38    1
    30    37    39    1
    31    25    28    1
    32    28    29   ar
    33    29    30   ar
    34    30    31   ar
    35    31    32   ar
    36    32    33    1
    37    32    34   ar
    38    12     2   ar
    39    20    15   ar
    40    34    28   ar
    41    10     4   ar
    42    26    27    1
@<TRIPOS>MOLECULE
*****
 39 42 0 0 0
SMALL
GASTEIGER

@<TRIPOS>ATOM
      1 C          63.0427   89.4959   12.9093 C.3     1  UNL1        0.0808
      2 C          60.7175   88.8460   11.9494 C.ar    1  UNL1        0.2211
      3 N          59.8889   88.1078   10.9402 N.ar    1  UNL1       -0.2119
      4 C          60.5569   87.2812    9.8817 C.ar    1  UNL1        0.0844
      5 C          59.7284   86.5429    8.8725 C.ar    1  UNL1        0.0197
      6 C          60.3964   85.7163    7.8140 C.ar    1  UNL1        0.0082
      7 C          61.8930   85.6279    7.7647 C.ar    1  UNL1        0.0347
      8 BR         62.5610   84.8013    6.7062 Br      1  UNL1       -0.0490
      9 C          62.7216   86.3662    8.7739 C.ar    1  UNL1        0.0082
     10 C          62.0536   87.1928    9.8324 C.ar    1  UNL1        0.0181
     11 C          62.8821   87.9310   10.8416 C.ar    1  UNL1        0.0023
     12 C          62.2141   88.7577   11.9001 C.ar    1  UNL1        0.0375
     13 C          58.7028   89.2723   13.5336 C.3     1  UNL1        0.2542
     14 O          60.0495   89.6727   13.0080 O.3     1  UNL1       -0.4563
     15 C          64.0004   90.5594   12.4598 C.ar    1  UNL1        0.0245
     16 C          63.9837   91.0303   11.0357 C.ar    1  UNL1        0.0200
     17 C          64.9413   92.0938   10.5862 C.ar    1  UNL1        0.1019
     18 N          65.9157   92.6862   11.5608 N.ar    1  UNL1       -0.2076
     19 C          65.9323   92.2152   12.9848 C.ar    1  UNL1        0.2598
     20 C          64.9746   91.1518   13.4343 C.ar    1  UNL1        0.1879
     21 O          66.9066   92.8077   13.9594 O.3     1  UNL1       -0.4541
     22 C          68.1996   92.1045   14.2486 C.3     1  UNL1        0.2543
     23 O          64.9913   90.6808   14.8583 O.3     1  UNL1       -0.4670
     24 C          64.9219   91.6762   15.9784 C.3     1  UNL1        0.2527
     25 C          62.9137   89.1708   14.3679 C.3     1  UNL1        0.1159
     26 O          62.3012   90.5177   14.6140 O.3     1  UNL1       -0.3820
     27 H          61.7790   90.7817   13.8403 H       1  UNL1        0.2107
     28 C          63.5262   87.8239   14.1218 C.ar    1  UNL1        0.0021
     29 C          64.8195   87.4554   14.7863 C.ar    1  UNL1       -0.0020
     30 C          65.4320   86.1084   14.5402 C.ar    1  UNL1       -0.0006
     31 C          64.7512   85.1300   13.6296 C.ar    1  UNL1       -0.0043
     32 C          63.4579   85.4985   12.9651 C.ar    1  UNL1       -0.0221
     33 C          62.7771   84.5200   12.0545 C.3     1  UNL1        0.0310
     34 C          62.8454   86.8454   13.2112 C.ar    1  UNL1       -0.0063
     35 C          62.7846   88.8456   15.8265 C.3     1  UNL1        0.0491
     36 C          61.7906   87.8182   16.2808 C.3     1  UNL1        0.0750
     37 N          62.2455   86.6427   17.0940 N.3     1  UNL1       -0.2702
     38 C          62.2477   85.2693   16.4909 C.3     1  UNL1        0.0897
     39 C          62.6983   86.8406   18.5103 C.3     1  UNL1        0.0897
@<TRIPOS>BOND
     1    13    14    1
     2    14     2    1
     3     2     3   ar
     4     3     4   ar
     5     4     5   ar
     6     5     6   ar
     7     6     7   ar
     8     7     8    1
     9     7     9   ar
    10     9    10   ar
    11    10    11   ar
    12    11    12   ar
    13     1    12    1
    14     1    15    1
    15    15    16   ar
    16    16    17   ar
    17    17    18   ar
    18    18    19   ar
    19    19    21    1
    20    21    22    1
    21    19    20   ar
    22    20    23    1
    23    23    24    1
    24     1    25    1
    25    25    26    1
    26    25    35    1
    27    35    36    1
    28    36    37    1
    29    37    38    1
    30    37    39    1
    31    25    28    1
    32    28    29   ar
    33    29    30   ar
    34    30    31   ar
    35    31    32   ar
    36    32    33    1
    37    32    34   ar
    38    12     2   ar
    39    20    15   ar
    40    34    28   ar
    41    10     4   ar
    42    26    27    1
@<TRIPOS>MOLECULE
*****
 39 42 0 0 0
SMALL
GASTEIGER

@<TRIPOS>ATOM
      1 C          63.1238   88.7488   12.1349 C.3     1  UNL1        0.0808
      2 C          60.7275   88.5978   11.1424 C.ar    1  UNL1        0.2211
      3 N          59.7772   88.0494   10.1194 N.ar    1  UNL1       -0.2119
      4 C          60.2731   87.1037    9.0660 C.ar    1  UNL1        0.0844
      5 C          59.3229   86.5553    8.0431 C.ar    1  UNL1        0.0197
      6 C          59.8188   85.6096    6.9897 C.ar    1  UNL1        0.0082
      7 C          61.2649   85.2122    6.9592 C.ar    1  UNL1        0.0347
      8 BR         61.7608   84.2664    5.9058 Br      1  UNL1       -0.0490
      9 C          62.2151   85.7605    7.9822 C.ar    1  UNL1        0.0082
     10 C          61.7192   86.7063    9.0356 C.ar    1  UNL1        0.0181
     11 C          62.6694   87.2546   10.0585 C.ar    1  UNL1        0.0023
     12 C          62.1735   88.2004   11.1119 C.ar    1  UNL1        0.0375
     13 C          59.1324   90.5130   11.8760 C.3     1  UNL1        0.2542
     14 O          60.2316   89.5435   12.1958 O.3     1  UNL1       -0.4563
     15 C          63.7056   87.8432   13.1796 C.ar    1  UNL1        0.0245
     16 C          64.7351   88.3666   14.1369 C.ar    1  UNL1        0.0200
     17 C          65.3169   87.4610   15.1815 C.ar    1  UNL1        0.1019
     18 N          64.8693   86.0320   15.2690 N.ar    1  UNL1       -0.2076
     19 C          63.8399   85.5086   14.3117 C.ar    1  UNL1        0.2598
     20 C          63.2580   86.4142   13.2670 C.ar    1  UNL1        0.1879
     21 O          63.3923   84.0796   14.3992 O.3     1  UNL1       -0.4541
     22 C          62.3684   83.6754   15.4181 C.3     1  UNL1        0.2543
     23 O          62.2286   85.8908   12.3098 O.3     1  UNL1       -0.4670
     24 C          62.3837   84.5220   11.7161 C.3     1  UNL1        0.2527
     25 C          63.4921   90.2026   12.1132 C.3     1  UNL1        0.1159
     26 O          63.6309   90.1451   10.6207 O.3     1  UNL1       -0.3820
     27 H          62.9890   89.5135   10.2604 H       1  UNL1        0.2107
     28 C          63.3533   90.2601   13.6056 C.ar    1  UNL1        0.0021
     29 C          62.3028   89.4394   14.2933 C.ar    1  UNL1       -0.0020
     30 C          62.1641   89.4969   15.7858 C.ar    1  UNL1       -0.0006
     31 C          63.0758   90.3751   16.5905 C.ar    1  UNL1       -0.0043
     32 C          64.1263   91.1958   15.9028 C.ar    1  UNL1       -0.0221
     33 C          65.0380   92.0740   16.7076 C.3     1  UNL1        0.0310
     34 C          64.2651   91.1383   14.4104 C.ar    1  UNL1       -0.0063
     35 C          63.8605   91.6565   12.0914 C.3     1  UNL1        0.0491
     36 C          64.6001   92.2253   10.9169 C.3     1  UNL1        0.0750
     37 N          65.8140   93.0786   11.1368 N.3     1  UNL1       -0.2702
     38 C          66.1235   93.6035   12.5075 C.3     1  UNL1        0.0897
     39 C          66.7184   93.4070    9.9861 C.3     1  UNL1        0.0897
@<TRIPOS>BOND
     1    13    14    1
     2    14     2    1
     3     2     3   ar
     4     3     4   ar
     5     4     5   ar
     6     5     6   ar
     7     6     7   ar
     8     7     8    1
     9     7     9   ar
    10     9    10   ar
    11    10    11   ar
    12    11    12   ar
    13     1    12    1
    14     1    15    1
    15    15    16   ar
    16    16    17   ar
    17    17    18   ar
    18    18    19   ar
    19    19    21    1
    20    21    22    1
    21    19    20   ar
    22    20    23    1
    23    23    24    1
    24     1    25    1
    25    25    26    1
    26    25    35    1
    27    35    36    1
    28    36    37    1
    29    37    38    1
    30    37    39    1
    31    25    28    1
    32    28    29   ar
    33    29    30   ar
    34    30    31   ar
    35    31    32   ar
    36    32    33    1
    37    32    34   ar
    38    12     2   ar
    39    20    15   ar
    40    34    28   ar
    41    10     4   ar
    42    26    27    1
@<TRIPOS>MOLECULE
*****
 39 42 0 0 0
SMALL
GASTEIGER

@<TRIPOS>ATOM
      1 C          62.9345   88.3400   11.6866 C.3     1  UNL1        0.0808
      2 C          63.3685   90.3615   13.2598 C.ar    1  UNL1        0.2211
      3 N          63.9823   91.7080   13.5058 N.ar    1  UNL1       -0.2119
      4 C          64.7758   92.3793   12.4242 C.ar    1  UNL1        0.0844
      5 C          65.3895   93.7257   12.6701 C.ar    1  UNL1        0.0197
      6 C          66.1830   94.3970   11.5886 C.ar    1  UNL1        0.0082
      7 C          66.3627   93.7220   10.2612 C.ar    1  UNL1        0.0347
      8 BR         67.1562   94.3934    9.1797 Br      1  UNL1       -0.0490
      9 C          65.7490   92.3755   10.0153 C.ar    1  UNL1        0.0082
     10 C          64.9555   91.7042   11.0968 C.ar    1  UNL1        0.0181
     11 C          64.3417   90.3578   10.8510 C.ar    1  UNL1        0.0023
     12 C          63.5483   89.6865   11.9325 C.ar    1  UNL1        0.0375
     13 C          62.9628   89.8721   15.7790 C.3     1  UNL1        0.2542
     14 O          62.5750   89.6901   14.3414 O.3     1  UNL1       -0.4563
     15 C          63.1746   87.2185   12.6533 C.ar    1  UNL1        0.0245
     16 C          63.9865   87.4568   13.8919 C.ar    1  UNL1        0.0200
     17 C          64.2266   86.3353   14.8586 C.ar    1  UNL1        0.1019
     18 N          63.6548   84.9754   14.5867 N.ar    1  UNL1       -0.2076
     19 C          62.8429   84.7371   13.3481 C.ar    1  UNL1        0.2598
     20 C          62.6028   85.8586   12.3814 C.ar    1  UNL1        0.1879
     21 O          62.2712   83.3773   13.0763 O.3     1  UNL1       -0.4541
     22 C          62.3391   82.3110   14.1290 C.3     1  UNL1        0.2543
     23 O          61.7910   85.6204   11.1429 O.3     1  UNL1       -0.4670
     24 C          62.0717   84.4256   10.2804 C.3     1  UNL1        0.2527
     25 C          62.0807   88.1151   10.4740 C.3     1  UNL1        0.1159
     26 O          63.1785   87.3047    9.8512 O.3     1  UNL1       -0.3820
     27 H          63.6626   86.8293   10.5445 H       1  UNL1        0.2107
     28 C          60.9828   88.9255   11.0967 C.ar    1  UNL1        0.0021
     29 C          60.8242   90.3736   10.7393 C.ar    1  UNL1       -0.0020
     30 C          59.7263   91.1840   11.3621 C.ar    1  UNL1       -0.0006
     31 C          58.7870   90.5463   12.3423 C.ar    1  UNL1       -0.0043
     32 C          58.9455   89.0982   12.6998 C.ar    1  UNL1       -0.0221
     33 C          58.0061   88.4605   13.6801 C.3     1  UNL1        0.0310
     34 C          60.0434   88.2878   12.0771 C.ar    1  UNL1       -0.0063
     35 C          61.2269   87.8902    9.2614 C.3     1  UNL1        0.0491
     36 C          61.6165   86.8514    8.2519 C.3     1  UNL1        0.0750
     37 N          60.5572   86.0658    7.5371 N.3     1  UNL1       -0.2702
     38 C          60.9319   84.8459    6.7488 C.3     1  UNL1        0.0897
     39 C          59.1234   86.5001    7.6106 C.3     1  UNL1        0.0897
@<TRIPOS>BOND
     1    13    14    1
     2    14     2    1
     3     2     3   ar
     4     3     4   ar
     5     4     5   ar
     6     5     6   ar
     7     6     7   ar
     8     7     8    1
     9     7     9   ar
    10     9    10   ar
    11    10    11   ar
    12    11    12   ar
    13     1    12    1
    14     1    15    1
    15    15    16   ar
    16    16    17   ar
    17    17    18   ar
    18    18    19   ar
    19    19    21    1
    20    21    22    1
    21    19    20   ar
    22    20    23    1
    23    23    24    1
    24     1    25    1
    25    25    26    1
    26    25    35    1
    27    35    36    1
    28    36    37    1
    29    37    38    1
    30    37    39    1
    31    25    28    1
    32    28    29   ar
    33    29    30   ar
    34    30    31   ar
    35    31    32   ar
    36    32    33    1
    37    32    34   ar
    38    12     2   ar
    39    20    15   ar
    40    34    28   ar
    41    10     4   ar
    42    26    27    1
