@<TRIPOS>MOLECULE
*****
 34 36 0 0 0
SMALL
GASTEIGER

@<TRIPOS>ATOM
      1 C          63.3750   82.3393   13.1419 C.ar    1  UNL1        0.2167
      2 N          62.7492   82.8362   11.8726 N.ar    1  UNL1       -0.2184
      3 C          62.6303   84.3104   11.6220 C.ar    1  UNL1        0.0628
      4 C          63.1372   85.2876   12.6409 C.ar    1  UNL1        0.0336
      5 C          63.7630   84.7906   13.9103 C.ar    1  UNL1        0.1358
      6 N          63.8820   83.3165   14.1608 N.ar    1  UNL1       -0.2095
      7 C          63.0183   86.7617   12.3904 C.3     1  UNL1        0.1229
      8 N          62.3925   87.2586   11.1211 N.am    1  UNL1       -0.2749
      9 C          62.2735   88.7328   10.8705 C.2     1  UNL1        0.2262
     10 O          61.6477   89.2298    9.6012 O.2     1  UNL1       -0.2748
     11 C          61.8855   86.2814   10.1022 C.3     1  UNL1        0.1000
     12 C          62.0045   84.8073   10.3527 C.3     1  UNL1        0.0672
     13 C          64.2700   85.7678   14.9292 C.2     1  UNL1        0.2604
     14 N          65.7457   85.9746   15.1008 N.am    1  UNL1       -0.3241
     15 O          63.3011   86.5381   15.7766 O.2     1  UNL1       -0.2687
     16 H          66.3815   85.4690   14.5447 H       1  UNL1        0.1453
     17 H          66.0784   86.6160   15.7695 H       1  UNL1        0.1453
     18 N          63.4940   80.8651   13.3925 N.pl3   1  UNL1       -0.3030
     19 H          64.3829   80.4479   13.4633 H       1  UNL1        0.1496
     20 C          60.9894   80.6417   14.0458 C.3     1  UNL1        0.0230
     21 C          62.2585   80.0265   13.5352 C.3     1  UNL1        0.0896
     22 C          62.7804   89.7100   11.8894 C.3     1  UNL1        0.0900
     23 C          63.3063   91.0448   11.4517 C.3     1  UNL1        0.0359
     24 C          64.4521   91.6767   12.1851 C.ar    1  UNL1       -0.0215
     25 C          64.8677   91.1476   13.5257 C.ar    1  UNL1       -0.0011
     26 C          66.0134   91.7795   14.2592 C.ar    1  UNL1        0.0369
     27 C          66.7437   92.9405   13.6520 C.ar    1  UNL1        0.1468
     28 C          66.3282   93.4697   12.3113 C.ar    1  UNL1        0.0369
     29 C          65.1824   92.8378   11.5779 C.ar    1  UNL1       -0.0011
     30 O          67.8895   93.5723   14.3854 O.3     1  UNL1       -0.4045
     31 C          68.5190   92.8627   15.5473 C.3     1  UNL1        0.5753
     32 F          69.1486   92.1529   16.7092 F       1  UNL1       -0.1328
     33 F          67.4549   93.4047   16.4549 F       1  UNL1       -0.1328
     34 F          69.5831   92.3206   14.6396 F       1  UNL1       -0.1328
@<TRIPOS>BOND
     1    20    21    1
     2    21    18    1
     3    18     1    1
     4     1     2   ar
     5     2     3   ar
     6     3     4   ar
     7     4     5   ar
     8     5    13    1
     9    13    14   am
    10    13    15    2
    11     5     6   ar
    12     4     7    1
    13     7     8    1
    14     8     9   am
    15     9    10    2
    16     9    22    1
    17    22    23    1
    18    23    24    1
    19    24    25   ar
    20    25    26   ar
    21    26    27   ar
    22    27    30    1
    23    30    31    1
    24    31    32    1
    25    31    33    1
    26    31    34    1
    27    27    28   ar
    28    28    29   ar
    29     8    11    1
    30    11    12    1
    31     6     1   ar
    32    29    24   ar
    33    12     3    1
    34    18    19    1
    35    14    16    1
    36    14    17    1
@<TRIPOS>MOLECULE
*****
 34 36 0 0 0
SMALL
GASTEIGER

@<TRIPOS>ATOM
      1 C          65.8645   92.5337   14.3078 C.ar    1  UNL1        0.2167
      2 N          65.4611   92.8306   12.8940 N.ar    1  UNL1       -0.2184
      3 C          64.5010   91.9244   12.1818 C.ar    1  UNL1        0.0628
      4 C          63.9444   90.7212   12.8837 C.ar    1  UNL1        0.0336
      5 C          64.3479   90.4242   14.2976 C.ar    1  UNL1        0.1358
      6 N          65.3079   91.3305   15.0096 N.ar    1  UNL1       -0.2095
      7 C          62.9844   89.8149   12.1716 C.3     1  UNL1        0.1229
      8 N          62.5810   90.1119   10.7578 N.am    1  UNL1       -0.2749
      9 C          61.6209   89.2056   10.0457 C.2     1  UNL1        0.2262
     10 O          61.2175   89.5025    8.6318 O.2     1  UNL1       -0.2748
     11 C          63.1376   91.3151   10.0560 C.3     1  UNL1        0.1000
     12 C          64.0976   92.2213   10.7680 C.3     1  UNL1        0.0672
     13 C          63.7914   89.2210   14.9994 C.2     1  UNL1        0.2604
     14 N          62.7341   89.3880   16.0502 N.am    1  UNL1       -0.3241
     15 O          64.2921   87.8508   14.6504 O.2     1  UNL1       -0.2687
     16 H          62.4054   90.2873   16.2793 H       1  UNL1        0.1453
     17 H          62.3688   88.5983   16.5108 H       1  UNL1        0.1453
     18 N          66.8246   93.4400   15.0199 N.pl3   1  UNL1       -0.3030
     19 H          66.6286   94.4017   15.0972 H       1  UNL1        0.1496
     20 C          69.1693   93.8061   16.0773 C.3     1  UNL1        0.0230
     21 C          68.0832   92.8809   15.6143 C.3     1  UNL1        0.0896
     22 C          61.0644   88.0024   10.7475 C.3     1  UNL1        0.0900
     23 C          61.1322   86.6544   10.0931 C.3     1  UNL1        0.0359
     24 C          61.9558   85.5624   10.7089 C.ar    1  UNL1       -0.0215
     25 C          62.7553   84.6423    9.8348 C.ar    1  UNL1       -0.0011
     26 C          63.5789   83.5503   10.4506 C.ar    1  UNL1        0.0369
     27 C          63.6030   83.3783   11.9405 C.ar    1  UNL1        0.1468
     28 C          62.8034   84.2985   12.8147 C.ar    1  UNL1        0.0369
     29 C          61.9798   85.3905   12.1989 C.ar    1  UNL1       -0.0011
     30 O          64.4266   82.2863   12.5563 O.3     1  UNL1       -0.4045
     31 C          63.7626   81.2105   13.3634 C.3     1  UNL1        0.5753
     32 F          63.0985   80.1345   14.1706 F       1  UNL1       -0.1328
     33 F          64.2340   81.8673   14.6268 F       1  UNL1       -0.1328
     34 F          63.2911   80.5536   12.1000 F       1  UNL1       -0.1328
@<TRIPOS>BOND
     1    20    21    1
     2    21    18    1
     3    18     1    1
     4     1     2   ar
     5     2     3   ar
     6     3     4   ar
     7     4     5   ar
     8     5    13    1
     9    13    14   am
    10    13    15    2
    11     5     6   ar
    12     4     7    1
    13     7     8    1
    14     8     9   am
    15     9    10    2
    16     9    22    1
    17    22    23    1
    18    23    24    1
    19    24    25   ar
    20    25    26   ar
    21    26    27   ar
    22    27    30    1
    23    30    31    1
    24    31    32    1
    25    31    33    1
    26    31    34    1
    27    27    28   ar
    28    28    29   ar
    29     8    11    1
    30    11    12    1
    31     6     1   ar
    32    29    24   ar
    33    12     3    1
    34    18    19    1
    35    14    16    1
    36    14    17    1
@<TRIPOS>MOLECULE
*****
 34 36 0 0 0
SMALL
GASTEIGER

@<TRIPOS>ATOM
      1 C          62.8837   84.9688    8.3658 C.ar    1  UNL1        0.2167
      2 N          63.5121   83.8588    9.1550 N.ar    1  UNL1       -0.2184
      3 C          63.4609   83.8821   10.6540 C.ar    1  UNL1        0.0628
      4 C          62.7813   85.0153   11.3637 C.ar    1  UNL1        0.0336
      5 C          62.1528   86.1254   10.5744 C.ar    1  UNL1        0.1358
      6 N          62.2040   86.1021    9.0755 N.ar    1  UNL1       -0.2095
      7 C          62.7300   85.0386   12.8626 C.3     1  UNL1        0.1229
      8 N          63.3585   83.9286   13.6518 N.am    1  UNL1       -0.2749
      9 C          63.3073   83.9519   15.1508 C.2     1  UNL1        0.2262
     10 O          63.9358   82.8418   15.9400 O.2     1  UNL1       -0.2748
     11 C          64.0382   82.7953   12.9421 C.3     1  UNL1        0.1000
     12 C          64.0894   82.7721   11.4432 C.3     1  UNL1        0.0672
     13 C          61.4731   87.2587   11.2842 C.2     1  UNL1        0.2604
     14 N          59.9758   87.3485   11.2921 N.am    1  UNL1       -0.3241
     15 O          62.2908   88.3022   11.9860 O.2     1  UNL1       -0.2687
     16 H          59.4392   86.6636   10.8314 H       1  UNL1        0.1453
     17 H          59.5298   88.0923   11.7579 H       1  UNL1        0.1453
     18 N          62.9349   84.9456    6.8668 N.pl3   1  UNL1       -0.3030
     19 H          63.7655   85.1911    6.3988 H       1  UNL1        0.1496
     20 C          61.8476   84.2058    4.6262 C.3     1  UNL1        0.0230
     21 C          61.7205   84.5483    6.0810 C.3     1  UNL1        0.0896
     22 C          62.6276   85.0851   15.8606 C.3     1  UNL1        0.0900
     23 C          63.4391   86.0739   16.6440 C.3     1  UNL1        0.0359
     24 C          63.6390   87.4644   16.1180 C.ar    1  UNL1       -0.0215
     25 C          63.1215   88.6405   16.8917 C.ar    1  UNL1       -0.0011
     26 C          63.3214   90.0310   16.3657 C.ar    1  UNL1        0.0369
     27 C          64.0389   90.2453   15.0660 C.ar    1  UNL1        0.1468
     28 C          64.5564   89.0691   14.2922 C.ar    1  UNL1        0.0369
     29 C          64.3565   87.6786   14.8182 C.ar    1  UNL1       -0.0011
     30 O          64.2388   91.6357   14.5400 O.3     1  UNL1       -0.4045
     31 C          65.5424   92.0166   13.9034 C.3     1  UNL1        0.5753
     32 F          66.8462   92.3974   13.2666 F       1  UNL1       -0.1328
     33 F          66.2670   91.6395   15.1614 F       1  UNL1       -0.1328
     34 F          64.8179   92.3936   12.6453 F       1  UNL1       -0.1328
@<TRIPOS>BOND
     1    20    21    1
     2    21    18    1
     3    18     1    1
     4     1     2   ar
     5     2     3   ar
     6     3     4   ar
     7     4     5   ar
     8     5    13    1
     9    13    14   am
    10    13    15    2
    11     5     6   ar
    12     4     7    1
    13     7     8    1
    14     8     9   am
    15     9    10    2
    16     9    22    1
    17    22    23    1
    18    23    24    1
    19    24    25   ar
    20    25    26   ar
    21    26    27   ar
    22    27    30    1
    23    30    31    1
    24    31    32    1
    25    31    33    1
    26    31    34    1
    27    27    28   ar
    28    28    29   ar
    29     8    11    1
    30    11    12    1
    31     6     1   ar
    32    29    24   ar
    33    12     3    1
    34    18    19    1
    35    14    16    1
    36    14    17    1
@<TRIPOS>MOLECULE
*****
 34 36 0 0 0
SMALL
GASTEIGER

@<TRIPOS>ATOM
      1 C          63.1894   82.1563   12.7789 C.ar    1  UNL1        0.2167
      2 N          63.7453   82.8626   13.9797 N.ar    1  UNL1       -0.2184
      3 C          63.8194   84.3607   14.0013 C.ar    1  UNL1        0.0628
      4 C          63.3374   85.1524   12.8219 C.ar    1  UNL1        0.0336
      5 C          62.7814   84.4461   11.6210 C.ar    1  UNL1        0.1358
      6 N          62.7074   82.9481   11.5995 N.ar    1  UNL1       -0.2095
      7 C          63.4114   86.6504   12.8434 C.3     1  UNL1        0.1229
      8 N          63.9674   87.3566   14.0443 N.am    1  UNL1       -0.2749
      9 C          64.0414   88.8547   14.0658 C.2     1  UNL1        0.2262
     10 O          64.5974   89.5609   15.2667 O.2     1  UNL1       -0.2748
     11 C          64.4493   86.5649   15.2236 C.3     1  UNL1        0.1000
     12 C          64.3753   85.0669   15.2021 C.3     1  UNL1        0.0672
     13 C          62.2994   85.2378   10.4417 C.2     1  UNL1        0.2604
     14 N          61.0849   86.1088   10.5689 N.am    1  UNL1       -0.3241
     15 O          63.0321   85.1586    9.1352 O.2     1  UNL1       -0.2687
     16 H          60.6040   86.1608   11.4264 H       1  UNL1        0.1453
     17 H          60.7685   86.6284    9.7948 H       1  UNL1        0.1453
     18 N          63.1154   80.6583   12.7573 N.pl3   1  UNL1       -0.3030
     19 H          63.8118   80.1376   12.2957 H       1  UNL1        0.1496
     20 C          60.8733   80.7476   14.0670 C.3     1  UNL1        0.0230
     21 C          61.9802   79.9536   13.4391 C.3     1  UNL1        0.0896
     22 C          63.5594   89.6464   12.8865 C.3     1  UNL1        0.0900
     23 C          63.5769   91.1456   12.9319 C.3     1  UNL1        0.0359
     24 C          64.6705   91.9042   12.2401 C.ar    1  UNL1       -0.0215
     25 C          64.5519   92.2266   10.7800 C.ar    1  UNL1       -0.0011
     26 C          65.6454   92.9852   10.0881 C.ar    1  UNL1        0.0369
     27 C          66.8576   93.4215   10.8564 C.ar    1  UNL1        0.1468
     28 C          66.9762   93.0991   12.3166 C.ar    1  UNL1        0.0369
     29 C          65.8827   92.3405   13.0084 C.ar    1  UNL1       -0.0011
     30 O          67.9511   94.1801   10.1646 O.3     1  UNL1       -0.4045
     31 C          67.6134   95.1668    9.0865 C.3     1  UNL1        0.5753
     32 F          67.2756   96.1534    8.0083 F       1  UNL1       -0.1328
     33 F          67.2860   96.1941   10.1292 F       1  UNL1       -0.1328
     34 F          67.9407   94.1394    8.0437 F       1  UNL1       -0.1328
@<TRIPOS>BOND
     1    20    21    1
     2    21    18    1
     3    18     1    1
     4     1     2   ar
     5     2     3   ar
     6     3     4   ar
     7     4     5   ar
     8     5    13    1
     9    13    14   am
    10    13    15    2
    11     5     6   ar
    12     4     7    1
    13     7     8    1
    14     8     9   am
    15     9    10    2
    16     9    22    1
    17    22    23    1
    18    23    24    1
    19    24    25   ar
    20    25    26   ar
    21    26    27   ar
    22    27    30    1
    23    30    31    1
    24    31    32    1
    25    31    33    1
    26    31    34    1
    27    27    28   ar
    28    28    29   ar
    29     8    11    1
    30    11    12    1
    31     6     1   ar
    32    29    24   ar
    33    12     3    1
    34    18    19    1
    35    14    16    1
    36    14    17    1
@<TRIPOS>MOLECULE
*****
 34 36 0 0 0
SMALL
GASTEIGER

@<TRIPOS>ATOM
      1 C          60.2502   87.9448    8.6134 C.ar    1  UNL1        0.2167
      2 N          60.6086   89.2915    9.1683 N.ar    1  UNL1       -0.2184
      3 C          61.5188   89.3952   10.3561 C.ar    1  UNL1        0.0628
      4 C          62.0705   88.1523   10.9890 C.ar    1  UNL1        0.0336
      5 C          61.7121   86.8055   10.4341 C.ar    1  UNL1        0.1358
      6 N          60.8020   86.7018    9.2463 N.ar    1  UNL1       -0.2095
      7 C          62.9807   88.2560   12.1768 C.3     1  UNL1        0.1229
      8 N          63.3391   89.6027   12.7316 N.am    1  UNL1       -0.2749
      9 C          64.2493   89.7064   13.9195 C.2     1  UNL1        0.2262
     10 O          64.6076   91.0531   14.4743 O.2     1  UNL1       -0.2748
     11 C          62.7873   90.8456   12.0988 C.3     1  UNL1        0.1000
     12 C          61.8771   90.7419   10.9110 C.3     1  UNL1        0.0672
     13 C          62.2639   85.5625   11.0669 C.2     1  UNL1        0.2604
     14 N          63.1436   84.6434   10.2724 N.am    1  UNL1       -0.3241
     15 O          61.9359   85.2387   12.4944 O.2     1  UNL1       -0.2687
     16 H          63.3589   84.8560    9.3356 H       1  UNL1        0.1453
     17 H          63.5058   83.8276   10.6878 H       1  UNL1        0.1453
     18 N          59.3400   87.8410    7.4256 N.pl3   1  UNL1       -0.3030
     19 H          59.1559   86.9622    7.0217 H       1  UNL1        0.1496
     20 C          59.4924   89.9540    5.9216 C.3     1  UNL1        0.0230
     21 C          58.7103   89.0762    6.8531 C.3     1  UNL1        0.0896
     22 C          64.8010   88.4634   14.5524 C.3     1  UNL1        0.0900
     23 C          63.9387   87.6380   15.4606 C.3     1  UNL1        0.0359
     24 C          63.8528   86.1529   15.2680 C.ar    1  UNL1       -0.0215
     25 C          62.7712   85.3694   15.9508 C.ar    1  UNL1       -0.0011
     26 C          62.6853   83.8843   15.7582 C.ar    1  UNL1        0.0369
     27 C          63.6809   83.1827   14.8828 C.ar    1  UNL1        0.1468
     28 C          64.7626   83.9662   14.2000 C.ar    1  UNL1        0.0369
     29 C          64.8485   85.4513   14.3926 C.ar    1  UNL1       -0.0011
     30 O          63.5950   81.6976   14.6902 O.3     1  UNL1       -0.4045
     31 C          62.9518   81.1373   13.4564 C.3     1  UNL1        0.5753
     32 F          62.3086   80.5770   12.2226 F       1  UNL1       -0.1328
     33 F          61.6315   81.0893   14.1666 F       1  UNL1       -0.1328
     34 F          64.2722   81.1853   12.7463 F       1  UNL1       -0.1328
@<TRIPOS>BOND
     1    20    21    1
     2    21    18    1
     3    18     1    1
     4     1     2   ar
     5     2     3   ar
     6     3     4   ar
     7     4     5   ar
     8     5    13    1
     9    13    14   am
    10    13    15    2
    11     5     6   ar
    12     4     7    1
    13     7     8    1
    14     8     9   am
    15     9    10    2
    16     9    22    1
    17    22    23    1
    18    23    24    1
    19    24    25   ar
    20    25    26   ar
    21    26    27   ar
    22    27    30    1
    23    30    31    1
    24    31    32    1
    25    31    33    1
    26    31    34    1
    27    27    28   ar
    28    28    29   ar
    29     8    11    1
    30    11    12    1
    31     6     1   ar
    32    29    24   ar
    33    12     3    1
    34    18    19    1
    35    14    16    1
    36    14    17    1
@<TRIPOS>MOLECULE
*****
 34 36 0 0 0
SMALL
GASTEIGER

@<TRIPOS>ATOM
      1 C          60.9226   86.3359    8.3242 C.ar    1  UNL1        0.2167
      2 N          61.6449   85.5175    9.3530 N.ar    1  UNL1       -0.2184
      3 C          62.1987   86.1761   10.5817 C.ar    1  UNL1        0.0628
      4 C          62.0304   87.6532   10.7814 C.ar    1  UNL1        0.0336
      5 C          61.3081   88.4716    9.7524 C.ar    1  UNL1        0.1358
      6 N          60.7543   87.8130    8.5239 N.ar    1  UNL1       -0.2095
      7 C          62.5842   88.3119   12.0099 C.3     1  UNL1        0.1229
      8 N          63.3064   87.4935   13.0388 N.am    1  UNL1       -0.2749
      9 C          63.8603   88.1521   14.2674 C.2     1  UNL1        0.2262
     10 O          64.5825   87.3337   15.2962 O.2     1  UNL1       -0.2748
     11 C          63.4748   86.0164   12.8391 C.3     1  UNL1        0.1000
     12 C          62.9209   85.3577   11.6105 C.3     1  UNL1        0.0672
     13 C          61.1398   89.9487    9.9521 C.2     1  UNL1        0.2604
     14 N          62.2991   90.8731    9.7256 N.am    1  UNL1       -0.3241
     15 O          59.8120   90.5014   10.3784 O.2     1  UNL1       -0.2687
     16 H          63.1705   90.5104    9.4458 H       1  UNL1        0.1453
     17 H          62.1886   91.8426    9.8567 H       1  UNL1        0.1453
     18 N          60.3688   85.6772    7.0956 N.pl3   1  UNL1       -0.3030
     19 H          59.5952   86.0718    6.6318 H       1  UNL1        0.1496
     20 C          62.1852   84.4916    5.6657 C.3     1  UNL1        0.0230
     21 C          60.9936   84.4174    6.5736 C.3     1  UNL1        0.0896
     22 C          63.6919   89.6292   14.4671 C.3     1  UNL1        0.0900
     23 C          64.8860   90.4866   14.7655 C.3     1  UNL1        0.0359
     24 C          65.5343   91.2777   13.6683 C.ar    1  UNL1       -0.0215
     25 C          64.7440   91.6613   12.4525 C.ar    1  UNL1       -0.0011
     26 C          65.3924   92.4523   11.3553 C.ar    1  UNL1        0.0369
     27 C          66.8311   92.8598   11.4739 C.ar    1  UNL1        0.1468
     28 C          67.6215   92.4762   12.6898 C.ar    1  UNL1        0.0369
     29 C          66.9731   91.6851   13.7870 C.ar    1  UNL1       -0.0011
     30 O          67.4794   93.6509   10.3767 O.3     1  UNL1       -0.4045
     31 C          68.1595   92.9428    9.2427 C.3     1  UNL1        0.5753
     32 F          68.8396   92.2346    8.1087 F       1  UNL1       -0.1328
     33 F          67.9343   94.1362    8.3624 F       1  UNL1       -0.1328
     34 F          68.3847   91.7493   10.1230 F       1  UNL1       -0.1328
@<TRIPOS>BOND
     1    20    21    1
     2    21    18    1
     3    18     1    1
     4     1     2   ar
     5     2     3   ar
     6     3     4   ar
     7     4     5   ar
     8     5    13    1
     9    13    14   am
    10    13    15    2
    11     5     6   ar
    12     4     7    1
    13     7     8    1
    14     8     9   am
    15     9    10    2
    16     9    22    1
    17    22    23    1
    18    23    24    1
    19    24    25   ar
    20    25    26   ar
    21    26    27   ar
    22    27    30    1
    23    30    31    1
    24    31    32    1
    25    31    33    1
    26    31    34    1
    27    27    28   ar
    28    28    29   ar
    29     8    11    1
    30    11    12    1
    31     6     1   ar
    32    29    24   ar
    33    12     3    1
    34    18    19    1
    35    14    16    1
    36    14    17    1
@<TRIPOS>MOLECULE
*****
 34 36 0 0 0
SMALL
GASTEIGER

@<TRIPOS>ATOM
      1 C          60.5946   87.7692    8.8105 C.ar    1  UNL1        0.2167
      2 N          60.8964   86.3326    9.1185 N.ar    1  UNL1       -0.2184
      3 C          61.6895   85.9783   10.3415 C.ar    1  UNL1        0.0628
      4 C          62.1807   87.0607   11.2564 C.ar    1  UNL1        0.0336
      5 C          61.8788   88.4974   10.9484 C.ar    1  UNL1        0.1358
      6 N          61.0858   88.8516    9.7254 N.ar    1  UNL1       -0.2095
      7 C          62.9738   86.7065   12.4793 C.3     1  UNL1        0.1229
      8 N          63.2756   85.2698   12.7873 N.am    1  UNL1       -0.2749
      9 C          64.0687   84.9155   14.0103 C.2     1  UNL1        0.2262
     10 O          64.3705   83.4789   14.3183 O.2     1  UNL1       -0.2748
     11 C          62.7843   84.1874   11.8724 C.3     1  UNL1        0.1000
     12 C          61.9913   84.5416   10.6495 C.3     1  UNL1        0.0672
     13 C          62.3701   89.5798   11.8633 C.2     1  UNL1        0.2604
     14 N          61.6507   89.8583   13.1496 N.am    1  UNL1       -0.3241
     15 O          63.5808   90.3837   11.4917 O.2     1  UNL1       -0.2687
     16 H          60.8560   89.3307   13.3935 H       1  UNL1        0.1453
     17 H          61.9731   90.5688   13.7501 H       1  UNL1        0.1453
     18 N          59.8015   88.1235    7.5876 N.pl3   1  UNL1       -0.3030
     19 H          59.4212   87.4114    7.0241 H       1  UNL1        0.1496
     20 C          59.0555   89.9223    5.8677 C.3     1  UNL1        0.0230
     21 C          59.5878   89.5628    7.2232 C.3     1  UNL1        0.0896
     22 C          64.5599   85.9979   14.9252 C.3     1  UNL1        0.0900
     23 C          63.6014   87.0205   15.4597 C.3     1  UNL1        0.0359
     24 C          63.9784   88.4723   15.4628 C.ar    1  UNL1       -0.0215
     25 C          64.9676   88.9925   14.4625 C.ar    1  UNL1       -0.0011
     26 C          65.3445   90.4444   14.4656 C.ar    1  UNL1        0.0369
     27 C          64.7322   91.3761   15.4690 C.ar    1  UNL1        0.1468
     28 C          63.7429   90.8559   16.4694 C.ar    1  UNL1        0.0369
     29 C          63.3660   89.4040   16.4663 C.ar    1  UNL1       -0.0011
     30 O          65.1091   92.8280   15.4721 O.3     1  UNL1       -0.4045
     31 C          66.5424   93.2311   15.2901 C.3     1  UNL1        0.5753
     32 F          67.9757   93.6343   15.1082 F       1  UNL1       -0.1328
     33 F          66.1861   93.9174   14.0048 F       1  UNL1       -0.1328
     34 F          66.8986   92.5448   16.5754 F       1  UNL1       -0.1328
@<TRIPOS>BOND
     1    20    21    1
     2    21    18    1
     3    18     1    1
     4     1     2   ar
     5     2     3   ar
     6     3     4   ar
     7     4     5   ar
     8     5    13    1
     9    13    14   am
    10    13    15    2
    11     5     6   ar
    12     4     7    1
    13     7     8    1
    14     8     9   am
    15     9    10    2
    16     9    22    1
    17    22    23    1
    18    23    24    1
    19    24    25   ar
    20    25    26   ar
    21    26    27   ar
    22    27    30    1
    23    30    31    1
    24    31    32    1
    25    31    33    1
    26    31    34    1
    27    27    28   ar
    28    28    29   ar
    29     8    11    1
    30    11    12    1
    31     6     1   ar
    32    29    24   ar
    33    12     3    1
    34    18    19    1
    35    14    16    1
    36    14    17    1
@<TRIPOS>MOLECULE
*****
 34 36 0 0 0
SMALL
GASTEIGER

@<TRIPOS>ATOM
      1 C          60.8656   86.2063    8.2868 C.ar    1  UNL1        0.2167
      2 N          61.5753   85.3413    9.2857 N.ar    1  UNL1       -0.2184
      3 C          62.1670   85.9528   10.5211 C.ar    1  UNL1        0.0628
      4 C          62.0490   87.4293   10.7574 C.ar    1  UNL1        0.0336
      5 C          61.3393   88.2944    9.7583 C.ar    1  UNL1        0.1358
      6 N          60.7476   87.6829    8.5231 N.ar    1  UNL1       -0.2095
      7 C          62.6407   88.0408   11.9927 C.3     1  UNL1        0.1229
      8 N          63.3504   87.1757   12.9916 N.am    1  UNL1       -0.2749
      9 C          63.9421   87.7872   14.2270 C.2     1  UNL1        0.2262
     10 O          64.6518   86.9222   15.2259 O.2     1  UNL1       -0.2748
     11 C          63.4684   85.6992   12.7553 C.3     1  UNL1        0.1000
     12 C          62.8767   85.0877   11.5200 C.3     1  UNL1        0.0672
     13 C          61.2213   89.7710    9.9947 C.2     1  UNL1        0.2604
     14 N          62.3923   90.6693    9.7270 N.am    1  UNL1       -0.3241
     15 O          59.9322   90.3492   10.4986 O.2     1  UNL1       -0.2687
     16 H          63.2384   90.2898    9.3962 H       1  UNL1        0.1453
     17 H          62.3149   91.6384    9.8821 H       1  UNL1        0.1453
     18 N          60.2739   85.5949    7.0514 N.pl3   1  UNL1       -0.3030
     19 H          59.4639   85.9839    6.6491 H       1  UNL1        0.1496
     20 C          62.2812   84.5010    5.8168 C.3     1  UNL1        0.0230
     21 C          60.9163   84.3907    6.4291 C.3     1  UNL1        0.0896
     22 C          63.8241   89.2638   14.4633 C.3     1  UNL1        0.0900
     23 C          65.0372   90.0628   14.8373 C.3     1  UNL1        0.0359
     24 C          65.5304   91.1481   13.9269 C.ar    1  UNL1       -0.0215
     25 C          66.8261   91.8437   14.2224 C.ar    1  UNL1       -0.0011
     26 C          67.3193   92.9291   13.3120 C.ar    1  UNL1        0.0369
     27 C          66.5168   93.3188   12.1062 C.ar    1  UNL1        0.1468
     28 C          65.2211   92.6232   11.8107 C.ar    1  UNL1        0.0369
     29 C          64.7279   91.5379   12.7211 C.ar    1  UNL1       -0.0011
     30 O          67.0100   94.4042   11.1958 O.3     1  UNL1       -0.4045
     31 C          66.1032   95.5390   10.8217 C.3     1  UNL1        0.5753
     32 F          65.1964   96.6738   10.4476 F       1  UNL1       -0.1328
     33 F          66.1644   95.1140    9.3845 F       1  UNL1       -0.1328
     34 F          66.0421   95.9639   12.2589 F       1  UNL1       -0.1328
@<TRIPOS>BOND
     1    20    21    1
     2    21    18    1
     3    18     1    1
     4     1     2   ar
     5     2     3   ar
     6     3     4   ar
     7     4     5   ar
     8     5    13    1
     9    13    14   am
    10    13    15    2
    11     5     6   ar
    12     4     7    1
    13     7     8    1
    14     8     9   am
    15     9    10    2
    16     9    22    1
    17    22    23    1
    18    23    24    1
    19    24    25   ar
    20    25    26   ar
    21    26    27   ar
    22    27    30    1
    23    30    31    1
    24    31    32    1
    25    31    33    1
    26    31    34    1
    27    27    28   ar
    28    28    29   ar
    29     8    11    1
    30    11    12    1
    31     6     1   ar
    32    29    24   ar
    33    12     3    1
    34    18    19    1
    35    14    16    1
    36    14    17    1
@<TRIPOS>MOLECULE
*****
 34 36 0 0 0
SMALL
GASTEIGER

@<TRIPOS>ATOM
      1 C          59.7312   88.6535    7.7754 C.ar    1  UNL1        0.2167
      2 N          59.9924   87.2512    8.2393 N.ar    1  UNL1       -0.2184
      3 C          60.8599   87.0073    9.4385 C.ar    1  UNL1        0.0628
      4 C          61.4663   88.1657   10.1736 C.ar    1  UNL1        0.0336
      5 C          61.2051   89.5681    9.7096 C.ar    1  UNL1        0.1358
      6 N          60.3376   89.8119    8.5105 N.ar    1  UNL1       -0.2095
      7 C          62.3338   87.9218   11.3727 C.3     1  UNL1        0.1229
      8 N          62.5950   86.5195   11.8367 N.am    1  UNL1       -0.2749
      9 C          63.4626   86.2756   13.0358 C.2     1  UNL1        0.2262
     10 O          63.7238   84.8733   13.4998 O.2     1  UNL1       -0.2748
     11 C          61.9887   85.3611   11.1015 C.3     1  UNL1        0.1000
     12 C          61.1211   85.6050    9.9025 C.3     1  UNL1        0.0672
     13 C          61.8115   90.7265   10.4447 C.2     1  UNL1        0.2604
     14 N          62.8641   91.5661    9.7837 N.am    1  UNL1       -0.3241
     15 O          61.3651   91.0453   11.8408 O.2     1  UNL1       -0.2687
     16 H          63.1571   91.3568    8.8674 H       1  UNL1        0.1453
     17 H          63.2621   92.3264   10.2662 H       1  UNL1        0.1453
     18 N          58.8636   88.8974    6.5762 N.pl3   1  UNL1       -0.3030
     19 H          58.1436   88.2643    6.3525 H       1  UNL1        0.1496
     20 C          57.9304   90.9462    5.2793 C.3     1  UNL1        0.0230
     21 C          59.0931   90.1060    5.7179 C.3     1  UNL1        0.0896
     22 C          64.0689   87.4340   13.7709 C.3     1  UNL1        0.0900
     23 C          63.6381   88.8345   13.4499 C.3     1  UNL1        0.0359
     24 C          64.5924   89.9756   13.6426 C.ar    1  UNL1       -0.0215
     25 C          65.5176   89.9884   14.8232 C.ar    1  UNL1       -0.0011
     26 C          66.4719   91.1295   15.0159 C.ar    1  UNL1        0.0369
     27 C          66.5010   92.2578   14.0280 C.ar    1  UNL1        0.1468
     28 C          65.5758   92.2451   12.8474 C.ar    1  UNL1        0.0369
     29 C          64.6215   91.1040   12.6546 C.ar    1  UNL1       -0.0011
     30 O          67.4553   93.3989   14.2207 O.3     1  UNL1       -0.4045
     31 C          68.5034   93.3275   15.2914 C.3     1  UNL1        0.5753
     32 F          69.5514   93.2561   16.3622 F       1  UNL1       -0.1328
     33 F          69.4081   92.5815   14.3561 F       1  UNL1       -0.1328
     34 F          67.5986   94.0735   16.2268 F       1  UNL1       -0.1328
@<TRIPOS>BOND
     1    20    21    1
     2    21    18    1
     3    18     1    1
     4     1     2   ar
     5     2     3   ar
     6     3     4   ar
     7     4     5   ar
     8     5    13    1
     9    13    14   am
    10    13    15    2
    11     5     6   ar
    12     4     7    1
    13     7     8    1
    14     8     9   am
    15     9    10    2
    16     9    22    1
    17    22    23    1
    18    23    24    1
    19    24    25   ar
    20    25    26   ar
    21    26    27   ar
    22    27    30    1
    23    30    31    1
    24    31    32    1
    25    31    33    1
    26    31    34    1
    27    27    28   ar
    28    28    29   ar
    29     8    11    1
    30    11    12    1
    31     6     1   ar
    32    29    24   ar
    33    12     3    1
    34    18    19    1
    35    14    16    1
    36    14    17    1
