@<TRIPOS>MOLECULE
*****
 64 71 0 0 0
SMALL
GASTEIGER

@<TRIPOS>ATOM
      1 N          62.1089   95.0422   -3.5598 N.3     1  UNL1       -0.1862
      2 C          61.0000   94.6129   -4.4741 C.3     1  UNL1        0.1775
      3 C          59.7224   94.0741   -3.9021 C.2     1  UNL1        0.2452
      4 O          58.6134   93.6448   -4.8165 O.2     1  UNL1       -0.2732
      5 N          59.5536   93.9645   -2.4156 N.am    1  UNL1       -0.2541
      6 C          60.6625   94.3938   -1.5013 C.3     1  UNL1        0.1908
      7 C          60.4938   94.2842   -0.0148 C.3     1  UNL1        0.1359
      8 N          59.2161   93.7454    0.5573 N.am    1  UNL1       -0.2705
      9 C          58.1072   93.3162   -0.3572 C.2     1  UNL1        0.2445
     10 O          56.8295   92.7773    0.2149 O.2     1  UNL1       -0.2731
     11 C          58.2760   93.4257   -1.8436 C.3     1  UNL1        0.1577
     12 N          61.9402   94.9326   -2.0734 N.am    1  UNL1       -0.1863
     13 C          63.0491   95.3619   -1.1590 C.2     1  UNL1        0.3191
     14 O          62.8803   95.2523    0.3274 O.2     1  UNL1       -0.2512
     15 N          64.3267   95.9007   -1.7311 N.am    1  UNL1       -0.2836
     16 H          64.4375   95.9726   -2.7067 H       1  UNL1        0.1513
     17 C          63.3866   95.5810   -4.1319 C.3     1  UNL1        0.1188
     18 C          64.4934   93.2790   -4.6073 C.2     1  UNL1       -0.0034
     19 C          64.2495   94.7077   -4.9937 C.2     1  UNL1       -0.0071
     20 C          59.0474   93.6359    2.0437 C.3     1  UNL1        0.1217
     21 C          59.9127   92.6958    2.8295 C.ar    1  UNL1        0.0135
     22 C          61.3664   92.5524    2.4888 C.ar    1  UNL1       -0.0012
     23 C          62.2318   91.6123    3.2745 C.ar    1  UNL1       -0.0002
     24 C          61.6434   90.8157    4.4010 C.ar    1  UNL1        0.0016
     25 C          60.1896   90.9590    4.7418 C.ar    1  UNL1        0.0214
     26 C          59.3357   90.3098    5.7903 C.ar    1  UNL1        0.0722
     27 C          57.9426   90.8487    5.6525 C.ar    1  UNL1        0.0805
     28 N          57.9356   91.8308    4.5189 N.ar    1  UNL1       -0.3241
     29 C          56.7483   92.6084    4.0333 C.3     1  UNL1        0.1305
     30 C          59.3243   91.8991    3.9560 C.ar    1  UNL1        0.0577
     31 C          59.7944   89.2992    6.7994 C.2     1  UNL1        0.2510
     32 O          59.3855   87.8626    6.6614 O.2     1  UNL1       -0.2698
     33 N          60.6619   89.7251    7.9466 N.am    1  UNL1       -0.2791
     34 H          60.9302   90.6680    8.0372 H       1  UNL1        0.1552
     35 C          61.1206   88.7146    8.9557 C.ar    1  UNL1        0.0701
     36 C          62.0199   89.1332   10.0808 C.ar    1  UNL1        0.0191
     37 C          62.4787   88.1228   11.0900 C.ar    1  UNL1        0.0356
     38 C          62.0381   86.6936   10.9741 C.ar    1  UNL1        0.1319
     39 N          61.1387   86.2750    9.8489 N.ar    1  UNL1       -0.2279
     40 C          60.6800   87.2855    8.8398 C.ar    1  UNL1        0.1149
     41 N          62.4968   85.6831   11.9832 N.pl3   1  UNL1       -0.2904
     42 C          62.2549   84.2220   11.7448 C.3     1  UNL1        0.1095
     43 C          62.7136   83.2114   12.7539 C.3     1  UNL1        0.0939
     44 N          63.4141   83.6618   14.0014 N.3     1  UNL1       -0.2698
     45 C          63.6560   85.1229   14.2399 C.3     1  UNL1        0.0939
     46 C          63.1973   86.1335   13.2307 C.3     1  UNL1        0.1095
     47 C          63.8728   82.6513   15.0105 C.3     1  UNL1        0.0722
     48 C          64.7472   83.0759   16.1530 C.3     1  UNL1        0.0188
     49 C          57.1671   92.9965   -2.7579 C.3     1  UNL1        0.0556
     50 C          56.0750   93.9602   -3.1163 C.ar    1  UNL1       -0.0198
     51 C          55.7094   94.1784   -4.5546 C.ar    1  UNL1       -0.0011
     52 C          54.6173   95.1422   -4.9130 C.ar    1  UNL1        0.0363
     53 C          53.8908   95.8878   -3.8331 C.ar    1  UNL1        0.1337
     54 O          52.7987   96.8516   -4.1915 O.3     1  UNL1       -0.5055
     55 C          54.2564   95.6697   -2.3948 C.ar    1  UNL1        0.0363
     56 C          55.3485   94.7059   -2.0363 C.ar    1  UNL1       -0.0011
     57 H          52.5704   96.9879   -5.0900 H       1  UNL1        0.2922
     58 C          65.4356   96.3299   -0.8167 C.3     1  UNL1        0.1177
     59 C          65.4451   95.8791    0.6139 C.ar    1  UNL1       -0.0025
     60 C          65.7807   94.4563    0.9497 C.ar    1  UNL1       -0.0026
     61 C          65.7901   94.0054    2.3803 C.ar    1  UNL1       -0.0003
     62 C          65.4639   94.9775    3.4751 C.ar    1  UNL1       -0.0000
     63 C          65.1283   96.4004    3.1394 C.ar    1  UNL1       -0.0003
     64 C          65.1189   96.8512    1.7088 C.ar    1  UNL1       -0.0026
@<TRIPOS>BOND
     1    18    19    2
     2    19    17    1
     3    17     1    1
     4     1     2    1
     5     2     3    1
     6     3     4    2
     7     3     5   am
     8     5     6    1
     9     6     7    1
    10     7     8    1
    11     8    20    1
    12    20    21    1
    13    21    22   ar
    14    22    23   ar
    15    23    24   ar
    16    24    25   ar
    17    25    26   ar
    18    26    31    1
    19    31    32    2
    20    31    33   am
    21    33    35    1
    22    35    36   ar
    23    36    37   ar
    24    37    38   ar
    25    38    41    1
    26    41    42    1
    27    42    43    1
    28    43    44    1
    29    44    47    1
    30    47    48    1
    31    44    45    1
    32    45    46    1
    33    38    39   ar
    34    39    40   ar
    35    26    27   ar
    36    27    28   ar
    37    28    29    1
    38    28    30   ar
    39     8     9   am
    40     9    10    2
    41     9    11    1
    42    11    49    1
    43    49    50    1
    44    50    51   ar
    45    51    52   ar
    46    52    53   ar
    47    53    54    1
    48    53    55   ar
    49    55    56   ar
    50     6    12    1
    51    12    13   am
    52    13    14    2
    53    13    15   am
    54    15    58    1
    55    58    59    1
    56    59    60   ar
    57    60    61   ar
    58    61    62   ar
    59    62    63   ar
    60    63    64   ar
    61    12     1    1
    62    64    59   ar
    63    11     5    1
    64    56    50   ar
    65    30    21   ar
    66    30    25   ar
    67    40    35   ar
    68    46    41    1
    69    33    34    1
    70    54    57    1
    71    15    16    1
@<TRIPOS>MOLECULE
*****
 64 71 0 0 0
SMALL
GASTEIGER

@<TRIPOS>ATOM
      1 N          62.1172   95.2235   -3.7283 N.3     1  UNL1       -0.1862
      2 C          60.9827   95.1211   -4.7041 C.3     1  UNL1        0.1775
      3 C          59.6132   94.7404   -4.2249 C.2     1  UNL1        0.2452
      4 O          58.4787   94.6380   -5.2009 O.2     1  UNL1       -0.2732
      5 N          59.3783   94.4620   -2.7698 N.am    1  UNL1       -0.2541
      6 C          60.5128   94.5644   -1.7940 C.3     1  UNL1        0.1908
      7 C          60.2778   94.2861   -0.3388 C.3     1  UNL1        0.1359
      8 N          58.9084   93.9054    0.1404 N.am    1  UNL1       -0.2705
      9 C          57.7738   93.8030   -0.8355 C.2     1  UNL1        0.2445
     10 O          56.4044   93.4223   -0.3563 O.2     1  UNL1       -0.2731
     11 C          58.0088   94.0813   -2.2906 C.3     1  UNL1        0.1577
     12 N          61.8822   94.9451   -2.2732 N.am    1  UNL1       -0.1863
     13 C          63.0168   95.0475   -1.2972 C.2     1  UNL1        0.3191
     14 O          62.7818   94.7692    0.1579 O.2     1  UNL1       -0.2512
     15 N          64.3862   95.4282   -1.7764 N.am    1  UNL1       -0.2836
     16 H          64.5404   95.6109   -2.7315 H       1  UNL1        0.1513
     17 C          63.4866   95.6042   -4.2075 C.3     1  UNL1        0.1188
     18 C          64.0671   93.1121   -4.6576 C.2     1  UNL1       -0.0034
     19 C          64.3793   94.5695   -4.8260 C.2     1  UNL1       -0.0071
     20 C          58.6734   93.6271    1.5955 C.3     1  UNL1        0.1217
     21 C          59.6938   92.8644    2.3875 C.ar    1  UNL1        0.0135
     22 C          61.1355   92.8886    1.9740 C.ar    1  UNL1       -0.0012
     23 C          62.1558   92.1260    2.7660 C.ar    1  UNL1       -0.0002
     24 C          61.7344   91.3391    3.9715 C.ar    1  UNL1        0.0016
     25 C          60.2927   91.3149    4.3850 C.ar    1  UNL1        0.0214
     26 C          59.5851   90.6338    5.5187 C.ar    1  UNL1        0.0722
     27 C          58.1274   90.9756    5.4274 C.ar    1  UNL1        0.0805
     28 N          57.9342   91.8678    4.2373 N.ar    1  UNL1       -0.3241
     29 C          56.6314   92.4484    3.7729 C.3     1  UNL1        0.1305
     30 C          59.2724   92.0775    3.5930 C.ar    1  UNL1        0.0577
     31 C          60.2231   89.7637    6.5609 C.2     1  UNL1        0.2510
     32 O          61.5979   90.0855    7.0674 O.2     1  UNL1       -0.2698
     33 N          59.4864   88.5719    7.0964 N.am    1  UNL1       -0.2791
     34 H          58.5841   88.3607    6.7639 H       1  UNL1        0.1552
     35 C          60.1244   87.7018    8.1385 C.ar    1  UNL1        0.0701
     36 C          60.0069   88.0613    9.5900 C.ar    1  UNL1        0.0191
     37 C          60.6448   87.1913   10.6322 C.ar    1  UNL1        0.0356
     38 C          61.4002   85.9618   10.2228 C.ar    1  UNL1        0.1319
     39 N          61.5177   85.6023    8.7712 N.ar    1  UNL1       -0.2279
     40 C          60.8798   86.4723    7.7291 C.ar    1  UNL1        0.1149
     41 N          62.0382   85.0917   11.2648 N.pl3   1  UNL1       -0.2904
     42 C          62.3054   83.6449   10.9728 C.3     1  UNL1        0.1095
     43 C          62.9433   82.7747   12.0148 C.3     1  UNL1        0.0939
     44 N          63.3141   83.3513   13.3489 N.3     1  UNL1       -0.2698
     45 C          63.0469   84.7982   13.6411 C.3     1  UNL1        0.0939
     46 C          62.4089   85.6684   12.5990 C.3     1  UNL1        0.1095
     47 C          63.9520   82.4813   14.3910 C.3     1  UNL1        0.0722
     48 C          64.1222   81.0123   14.1397 C.3     1  UNL1        0.0188
     49 C          56.8743   93.9789   -3.2665 C.3     1  UNL1        0.0556
     50 C          56.2695   92.6416   -3.5759 C.ar    1  UNL1       -0.0198
     51 C          55.8401   92.3186   -4.9763 C.ar    1  UNL1       -0.0011
     52 C          55.2353   90.9812   -5.2858 C.ar    1  UNL1        0.0363
     53 C          55.0600   89.9669   -4.1948 C.ar    1  UNL1        0.1337
     54 O          54.4553   88.6295   -4.5042 O.3     1  UNL1       -0.5055
     55 C          55.4895   90.2898   -2.7943 C.ar    1  UNL1        0.0363
     56 C          56.0942   91.6272   -2.4848 C.ar    1  UNL1       -0.0011
     57 H          54.1870   88.4277   -5.3790 H       1  UNL1        0.2922
     58 C          65.5207   95.5306   -0.8006 C.3     1  UNL1        0.1177
     59 C          65.2435   95.5403    0.6736 C.ar    1  UNL1       -0.0025
     60 C          65.0632   96.8433    1.3943 C.ar    1  UNL1       -0.0026
     61 C          64.7860   96.8530    2.8684 C.ar    1  UNL1       -0.0003
     62 C          64.6890   95.5596    3.6218 C.ar    1  UNL1       -0.0000
     63 C          64.8693   94.2564    2.9011 C.ar    1  UNL1       -0.0003
     64 C          65.1465   94.2468    1.4269 C.ar    1  UNL1       -0.0026
@<TRIPOS>BOND
     1    18    19    2
     2    19    17    1
     3    17     1    1
     4     1     2    1
     5     2     3    1
     6     3     4    2
     7     3     5   am
     8     5     6    1
     9     6     7    1
    10     7     8    1
    11     8    20    1
    12    20    21    1
    13    21    22   ar
    14    22    23   ar
    15    23    24   ar
    16    24    25   ar
    17    25    26   ar
    18    26    31    1
    19    31    32    2
    20    31    33   am
    21    33    35    1
    22    35    36   ar
    23    36    37   ar
    24    37    38   ar
    25    38    41    1
    26    41    42    1
    27    42    43    1
    28    43    44    1
    29    44    47    1
    30    47    48    1
    31    44    45    1
    32    45    46    1
    33    38    39   ar
    34    39    40   ar
    35    26    27   ar
    36    27    28   ar
    37    28    29    1
    38    28    30   ar
    39     8     9   am
    40     9    10    2
    41     9    11    1
    42    11    49    1
    43    49    50    1
    44    50    51   ar
    45    51    52   ar
    46    52    53   ar
    47    53    54    1
    48    53    55   ar
    49    55    56   ar
    50     6    12    1
    51    12    13   am
    52    13    14    2
    53    13    15   am
    54    15    58    1
    55    58    59    1
    56    59    60   ar
    57    60    61   ar
    58    61    62   ar
    59    62    63   ar
    60    63    64   ar
    61    12     1    1
    62    64    59   ar
    63    11     5    1
    64    56    50   ar
    65    30    21   ar
    66    30    25   ar
    67    40    35   ar
    68    46    41    1
    69    33    34    1
    70    54    57    1
    71    15    16    1
@<TRIPOS>MOLECULE
*****
 64 71 0 0 0
SMALL
GASTEIGER

@<TRIPOS>ATOM
      1 N          65.7478   89.9242   13.9686 N.3     1  UNL1       -0.1862
      2 C          66.1805   88.7497   14.7951 C.3     1  UNL1        0.1775
      3 C          65.3786   87.4822   14.7748 C.2     1  UNL1        0.2452
      4 O          65.8113   86.3076   15.6014 O.2     1  UNL1       -0.2732
      5 N          64.1441   87.3892   13.9280 N.am    1  UNL1       -0.2541
      6 C          63.7114   88.5637   13.1014 C.3     1  UNL1        0.1908
      7 C          62.4768   88.4707   12.2545 C.3     1  UNL1        0.1359
      8 N          61.6749   87.2032   12.2342 N.am    1  UNL1       -0.2705
      9 C          62.1077   86.0287   13.0608 C.2     1  UNL1        0.2445
     10 O          61.3058   84.7611   13.0405 O.2     1  UNL1       -0.2731
     11 C          63.3422   86.1217   13.9077 C.3     1  UNL1        0.1577
     12 N          64.5132   89.8312   13.1217 N.am    1  UNL1       -0.1863
     13 C          64.0805   91.0058   12.2951 C.2     1  UNL1        0.3191
     14 O          62.8460   90.9128   11.4482 O.2     1  UNL1       -0.2512
     15 N          64.8824   92.2733   12.3154 N.am    1  UNL1       -0.2836
     16 H          65.6927   92.3343   12.8712 H       1  UNL1        0.1513
     17 C          66.5496   91.1917   13.9889 C.3     1  UNL1        0.1188
     18 C          67.0969   92.7300   16.0098 C.2     1  UNL1       -0.0034
     19 C          67.4033   91.5202   15.1777 C.2     1  UNL1       -0.0071
     20 C          60.4404   87.1102   11.3873 C.3     1  UNL1        0.1217
     21 C          60.5492   87.1781    9.8928 C.ar    1  UNL1        0.0135
     22 C          61.0046   85.9768    9.1186 C.ar    1  UNL1       -0.0012
     23 C          61.1134   86.0446    7.6241 C.ar    1  UNL1       -0.0002
     24 C          60.7668   87.3138    6.9038 C.ar    1  UNL1        0.0016
     25 C          60.3114   88.5152    7.6780 C.ar    1  UNL1        0.0214
     26 C          59.9047   89.8928    7.2457 C.ar    1  UNL1        0.0722
     27 C          59.5445   90.6763    8.4730 C.ar    1  UNL1        0.0805
     28 N          59.7286   89.7830    9.6638 N.ar    1  UNL1       -0.3241
     29 C          59.4820   90.1592   11.0948 C.3     1  UNL1        0.1305
     30 C          60.2026   88.4474    9.1725 C.ar    1  UNL1        0.0577
     31 C          59.8651   90.3981    5.8339 C.2     1  UNL1        0.2510
     32 O          58.6845   90.0920    4.9605 O.2     1  UNL1       -0.2698
     33 N          61.0060   91.2096    5.2955 N.am    1  UNL1       -0.2791
     34 H          61.7807   91.4105    5.8687 H       1  UNL1        0.1552
     35 C          60.9664   91.7149    3.8837 C.ar    1  UNL1        0.0701
     36 C          62.1538   91.5274    2.9866 C.ar    1  UNL1        0.0191
     37 C          62.1144   92.0327    1.5748 C.ar    1  UNL1        0.0356
     38 C          60.8876   92.7255    1.0602 C.ar    1  UNL1        0.1319
     39 N          59.7002   92.9131    1.9574 N.ar    1  UNL1       -0.2279
     40 C          59.7396   92.4077    3.3691 C.ar    1  UNL1        0.1149
     41 N          60.8480   93.2309   -0.3515 N.pl3   1  UNL1       -0.2904
     42 C          59.6597   92.9396   -1.2194 C.3     1  UNL1        0.1095
     43 C          59.6201   93.4449   -2.6312 C.3     1  UNL1        0.0939
     44 N          60.7688   94.2415   -3.1751 N.3     1  UNL1       -0.2698
     45 C          61.9571   94.5328   -2.3073 C.3     1  UNL1        0.0939
     46 C          61.9967   94.0275   -0.8955 C.3     1  UNL1        0.1095
     47 C          60.7293   94.7469   -4.5868 C.3     1  UNL1        0.0722
     48 C          59.4801   94.5948   -5.4031 C.3     1  UNL1        0.0188
     49 C          63.7749   84.9471   14.7342 C.3     1  UNL1        0.0556
     50 C          63.4482   83.5535   14.2859 C.ar    1  UNL1       -0.0198
     51 C          62.2961   82.8177   14.9034 C.ar    1  UNL1       -0.0011
     52 C          61.9694   81.4240   14.4551 C.ar    1  UNL1        0.0363
     53 C          62.7948   80.7661   13.3893 C.ar    1  UNL1        0.1337
     54 O          62.4681   79.3725   12.9411 O.3     1  UNL1       -0.5055
     55 C          63.9469   81.5019   12.7718 C.ar    1  UNL1        0.0363
     56 C          64.2736   82.8956   13.2201 C.ar    1  UNL1       -0.0011
     57 H          61.7484   78.9128   13.3268 H       1  UNL1        0.2922
     58 C          64.4497   93.4478   11.4888 C.3     1  UNL1        0.1177
     59 C          65.4415   94.1551   10.6137 C.ar    1  UNL1       -0.0025
     60 C          65.3037   95.6274   10.3619 C.ar    1  UNL1       -0.0026
     61 C          66.2956   96.3347    9.4867 C.ar    1  UNL1       -0.0003
     62 C          67.4252   95.5698    8.8633 C.ar    1  UNL1       -0.0000
     63 C          67.5631   94.0974    9.1150 C.ar    1  UNL1       -0.0003
     64 C          66.5712   93.3901    9.9902 C.ar    1  UNL1       -0.0026
@<TRIPOS>BOND
     1    18    19    2
     2    19    17    1
     3    17     1    1
     4     1     2    1
     5     2     3    1
     6     3     4    2
     7     3     5   am
     8     5     6    1
     9     6     7    1
    10     7     8    1
    11     8    20    1
    12    20    21    1
    13    21    22   ar
    14    22    23   ar
    15    23    24   ar
    16    24    25   ar
    17    25    26   ar
    18    26    31    1
    19    31    32    2
    20    31    33   am
    21    33    35    1
    22    35    36   ar
    23    36    37   ar
    24    37    38   ar
    25    38    41    1
    26    41    42    1
    27    42    43    1
    28    43    44    1
    29    44    47    1
    30    47    48    1
    31    44    45    1
    32    45    46    1
    33    38    39   ar
    34    39    40   ar
    35    26    27   ar
    36    27    28   ar
    37    28    29    1
    38    28    30   ar
    39     8     9   am
    40     9    10    2
    41     9    11    1
    42    11    49    1
    43    49    50    1
    44    50    51   ar
    45    51    52   ar
    46    52    53   ar
    47    53    54    1
    48    53    55   ar
    49    55    56   ar
    50     6    12    1
    51    12    13   am
    52    13    14    2
    53    13    15   am
    54    15    58    1
    55    58    59    1
    56    59    60   ar
    57    60    61   ar
    58    61    62   ar
    59    62    63   ar
    60    63    64   ar
    61    12     1    1
    62    64    59   ar
    63    11     5    1
    64    56    50   ar
    65    30    21   ar
    66    30    25   ar
    67    40    35   ar
    68    46    41    1
    69    33    34    1
    70    54    57    1
    71    15    16    1
