@<TRIPOS>MOLECULE
*****
 34 37 0 0 0
SMALL
GASTEIGER

@<TRIPOS>ATOM
      1 C          65.1838   92.1624   12.2759 C.ar    1  UNL1       -0.0004
      2 C          64.6755   91.3302   13.4156 C.ar    1  UNL1       -0.0024
      3 C          63.4940   90.4277   13.2167 C.ar    1  UNL1       -0.0002
      4 C          62.8208   90.3575   11.8780 C.ar    1  UNL1        0.0030
      5 C          61.6392   89.4550   11.6791 C.ar    1  UNL1        0.0369
      6 C          60.9661   89.3848   10.3405 C.ar    1  UNL1        0.1391
      7 C          61.4745   90.2171    9.2008 C.ar    1  UNL1        0.0369
      8 C          62.6560   91.1195    9.3997 C.ar    1  UNL1        0.0031
      9 C          63.3292   91.1897   10.7383 C.ar    1  UNL1       -0.0001
     10 C          64.5107   92.0922   10.9373 C.ar    1  UNL1       -0.0024
     11 C          66.3654   93.0649   12.4748 C.3     1  UNL1        0.1240
     12 N          67.1847   92.9627   13.7271 N.ar    1  UNL1       -0.3045
     13 C          67.0727   93.8530   14.9291 C.ar    1  UNL1        0.0983
     14 C          68.0787   93.3929   15.9422 C.ar    1  UNL1        0.1193
     15 N          68.8124   92.2182   15.3663 N.ar    1  UNL1       -0.2223
     16 C          68.2599   91.9523   13.9974 C.ar    1  UNL1        0.1788
     17 C          66.2287   95.4801   11.5272 C.3     1  UNL1        0.0197
     18 C          66.7276   94.0694   11.4215 C.3     1  UNL1        0.0827
     19 N          67.5887   93.6634   10.2623 N.3     1  UNL1       -0.2696
     20 C          68.1454   92.2722   10.1927 C.3     1  UNL1        0.0897
     21 C          67.8931   94.6484    9.1728 C.3     1  UNL1        0.0897
     22 O          59.7846   88.4824   10.1416 O.3     1  UNL1       -0.4706
     23 C          59.9452   87.1893    9.3985 C.3     1  UNL1        0.2320
     24 C          61.0522   86.2459    9.7653 C.ar    1  UNL1        0.0214
     25 C          61.9222   85.6579    8.6943 C.ar    1  UNL1        0.0024
     26 C          63.0292   84.7144    9.0611 C.ar    1  UNL1        0.0367
     27 C          63.2662   84.3592   10.4991 C.ar    1  UNL1        0.1382
     28 C          62.3961   84.9473   11.5701 C.ar    1  UNL1        0.0367
     29 C          61.2891   85.8907   11.2033 C.ar    1  UNL1        0.0024
     30 O          64.3732   83.4158   10.8659 O.3     1  UNL1       -0.4826
     31 C          64.1570   82.3851   11.9340 C.3     1  UNL1        0.1334
     32 C          63.4765   81.4947   10.9370 C.3     1  UNL1        0.0436
     33 C          64.8376   83.2755   12.9310 C.3     1  UNL1        0.0436
     34 C          63.9408   81.3543   13.0021 C.3     1  UNL1        0.0436
@<TRIPOS>BOND
     1    17    18    1
     2    18    11    1
     3    11     1    1
     4     1     2   ar
     5     2     3   ar
     6     3     4   ar
     7     4     5   ar
     8     5     6   ar
     9     6    22    1
    10    22    23    1
    11    23    24    1
    12    24    25   ar
    13    25    26   ar
    14    26    27   ar
    15    27    30    1
    16    30    31    1
    17    31    32    1
    18    31    33    1
    19    31    34    1
    20    27    28   ar
    21    28    29   ar
    22     6     7   ar
    23     7     8   ar
    24     8     9   ar
    25     9    10   ar
    26    11    12    1
    27    12    13   ar
    28    13    14   ar
    29    14    15   ar
    30    15    16   ar
    31    18    19    1
    32    19    20    1
    33    19    21    1
    34    10     1   ar
    35    16    12   ar
    36     9     4   ar
    37    29    24   ar
@<TRIPOS>MOLECULE
*****
 34 37 0 0 0
SMALL
GASTEIGER

@<TRIPOS>ATOM
      1 C          65.0642   92.5023   11.6865 C.ar    1  UNL1       -0.0004
      2 C          64.7602   92.5497   10.2184 C.ar    1  UNL1       -0.0024
      3 C          63.6219   91.7469    9.6619 C.ar    1  UNL1       -0.0002
      4 C          62.7876   90.8967   10.5735 C.ar    1  UNL1        0.0030
      5 C          61.6492   90.0939   10.0170 C.ar    1  UNL1        0.0369
      6 C          60.8148   89.2437   10.9286 C.ar    1  UNL1        0.1391
      7 C          61.1189   89.1964   12.3967 C.ar    1  UNL1        0.0369
      8 C          62.2572   89.9991   12.9532 C.ar    1  UNL1        0.0031
      9 C          63.0915   90.8493   12.0416 C.ar    1  UNL1       -0.0001
     10 C          64.2299   91.6521   12.5981 C.ar    1  UNL1       -0.0024
     11 C          66.2026   93.3051   12.2430 C.3     1  UNL1        0.1240
     12 N          66.8241   92.9176   13.5520 N.ar    1  UNL1       -0.3045
     13 C          66.4625   93.4719   14.8981 C.ar    1  UNL1        0.0983
     14 C          67.3312   92.8047   15.9229 C.ar    1  UNL1        0.1193
     15 N          68.2299   91.8380   15.2101 N.ar    1  UNL1       -0.2223
     16 C          67.9164   91.9078   13.7448 C.ar    1  UNL1        0.1788
     17 C          66.3948   95.8811   11.9644 C.3     1  UNL1        0.0197
     18 C          66.7194   94.4953   11.4905 C.3     1  UNL1        0.0827
     19 N          67.5608   94.2999   10.2642 N.3     1  UNL1       -0.2696
     20 C          67.5903   95.3555    9.1988 C.3     1  UNL1        0.0897
     21 C          68.3727   93.0490   10.1033 C.3     1  UNL1        0.0897
     22 O          59.6765   88.4410   10.3721 O.3     1  UNL1       -0.4706
     23 C          59.9464   87.3300    9.4010 C.3     1  UNL1        0.2320
     24 C          61.0471   86.3477    9.6721 C.ar    1  UNL1        0.0214
     25 C          61.9172   85.8674    8.5487 C.ar    1  UNL1        0.0024
     26 C          63.0179   84.8850    8.8198 C.ar    1  UNL1        0.0367
     27 C          63.2485   84.3831   10.2144 C.ar    1  UNL1        0.1382
     28 C          62.3783   84.8635   11.3379 C.ar    1  UNL1        0.0367
     29 C          61.2776   85.8458   11.0667 C.ar    1  UNL1        0.0024
     30 O          64.3491   83.4008   10.4856 O.3     1  UNL1       -0.4826
     31 C          64.1932   82.3816   11.5751 C.3     1  UNL1        0.1334
     32 C          64.9047   83.2936   12.5300 C.3     1  UNL1        0.0436
     33 C          63.4817   81.4696   10.6201 C.3     1  UNL1        0.0436
     34 C          64.0373   81.3625   12.6646 C.3     1  UNL1        0.0436
@<TRIPOS>BOND
     1    17    18    1
     2    18    11    1
     3    11     1    1
     4     1     2   ar
     5     2     3   ar
     6     3     4   ar
     7     4     5   ar
     8     5     6   ar
     9     6    22    1
    10    22    23    1
    11    23    24    1
    12    24    25   ar
    13    25    26   ar
    14    26    27   ar
    15    27    30    1
    16    30    31    1
    17    31    32    1
    18    31    33    1
    19    31    34    1
    20    27    28   ar
    21    28    29   ar
    22     6     7   ar
    23     7     8   ar
    24     8     9   ar
    25     9    10   ar
    26    11    12    1
    27    12    13   ar
    28    13    14   ar
    29    14    15   ar
    30    15    16   ar
    31    18    19    1
    32    19    20    1
    33    19    21    1
    34    10     1   ar
    35    16    12   ar
    36     9     4   ar
    37    29    24   ar
@<TRIPOS>MOLECULE
*****
 34 37 0 0 0
SMALL
GASTEIGER

@<TRIPOS>ATOM
      1 C          62.9740   84.4758   11.9903 C.ar    1  UNL1       -0.0004
      2 C          63.4663   83.9575   10.6717 C.ar    1  UNL1       -0.0024
      3 C          62.9550   84.5531    9.3936 C.ar    1  UNL1       -0.0002
      4 C          61.9513   85.6671    9.4340 C.ar    1  UNL1        0.0030
      5 C          61.4400   86.2627    8.1558 C.ar    1  UNL1        0.0369
      6 C          60.4363   87.3767    8.1962 C.ar    1  UNL1        0.1391
      7 C          59.9439   87.8951    9.5150 C.ar    1  UNL1        0.0369
      8 C          60.4553   87.2994   10.7931 C.ar    1  UNL1        0.0031
      9 C          61.4590   86.1854   10.7527 C.ar    1  UNL1       -0.0001
     10 C          61.9703   85.5898   12.0308 C.ar    1  UNL1       -0.0024
     11 C          63.4853   83.8802   13.2686 C.3     1  UNL1        0.1240
     12 N          63.1758   82.4521   13.6070 N.ar    1  UNL1       -0.3045
     13 C          61.8113   81.8804   13.8548 C.ar    1  UNL1        0.0983
     14 C          61.9686   80.4199   14.1581 C.ar    1  UNL1        0.1193
     15 N          63.4304   80.0888   14.0977 N.ar    1  UNL1       -0.2223
     16 C          64.1764   81.3447   13.7571 C.ar    1  UNL1        0.1788
     17 C          65.8037   84.6403   14.1616 C.3     1  UNL1        0.0197
     18 C          64.3061   84.7128   14.2083 C.3     1  UNL1        0.0827
     19 N          63.6294   85.6178   15.1947 N.3     1  UNL1       -0.2696
     20 C          64.0030   87.0691   15.2599 C.3     1  UNL1        0.0897
     21 C          62.5793   85.0715   16.1160 C.3     1  UNL1        0.0897
     22 O          59.9250   87.9723    6.9181 O.3     1  UNL1       -0.4706
     23 C          59.0736   89.2068    6.9538 C.3     1  UNL1        0.2320
     24 C          59.2590   90.2759    5.9181 C.ar    1  UNL1        0.0214
     25 C          58.0765   91.0567    5.4263 C.ar    1  UNL1        0.0024
     26 C          58.2618   92.1259    4.3905 C.ar    1  UNL1        0.0367
     27 C          59.6297   92.4141    3.8466 C.ar    1  UNL1        0.1382
     28 C          60.8122   91.6332    4.3385 C.ar    1  UNL1        0.0367
     29 C          60.6268   90.5641    5.3742 C.ar    1  UNL1        0.0024
     30 O          59.8150   93.4831    2.8110 O.3     1  UNL1       -0.4826
     31 C          60.4309   93.1448    1.4858 C.3     1  UNL1        0.1334
     32 C          59.0769   92.7884    0.9475 C.3     1  UNL1        0.0436
     33 C          61.7848   93.5012    2.0240 C.3     1  UNL1        0.0436
     34 C          61.0468   92.8064    0.1605 C.3     1  UNL1        0.0436
@<TRIPOS>BOND
     1    17    18    1
     2    18    11    1
     3    11     1    1
     4     1     2   ar
     5     2     3   ar
     6     3     4   ar
     7     4     5   ar
     8     5     6   ar
     9     6    22    1
    10    22    23    1
    11    23    24    1
    12    24    25   ar
    13    25    26   ar
    14    26    27   ar
    15    27    30    1
    16    30    31    1
    17    31    32    1
    18    31    33    1
    19    31    34    1
    20    27    28   ar
    21    28    29   ar
    22     6     7   ar
    23     7     8   ar
    24     8     9   ar
    25     9    10   ar
    26    11    12    1
    27    12    13   ar
    28    13    14   ar
    29    14    15   ar
    30    15    16   ar
    31    18    19    1
    32    19    20    1
    33    19    21    1
    34    10     1   ar
    35    16    12   ar
    36     9     4   ar
    37    29    24   ar
@<TRIPOS>MOLECULE
*****
 34 37 0 0 0
SMALL
GASTEIGER

@<TRIPOS>ATOM
      1 C          62.7661   85.8092   11.9643 C.ar    1  UNL1       -0.0004
      2 C          63.1127   87.2243   12.3209 C.ar    1  UNL1       -0.0024
      3 C          62.5421   88.3598   11.5241 C.ar    1  UNL1       -0.0002
      4 C          61.6249   88.0802   10.3706 C.ar    1  UNL1        0.0030
      5 C          61.0542   89.2158    9.5738 C.ar    1  UNL1        0.0369
      6 C          60.1370   88.9361    8.4203 C.ar    1  UNL1        0.1391
      7 C          59.7904   87.5209    8.0637 C.ar    1  UNL1        0.0369
      8 C          60.3610   86.3854    8.8605 C.ar    1  UNL1        0.0031
      9 C          61.2783   86.6651   10.0140 C.ar    1  UNL1       -0.0001
     10 C          61.8489   85.5296   10.8108 C.ar    1  UNL1       -0.0024
     11 C          63.3368   84.6736   12.7611 C.3     1  UNL1        0.1240
     12 N          63.2454   83.2705   12.2387 N.ar    1  UNL1       -0.3045
     13 C          63.8851   82.7532   10.9844 C.ar    1  UNL1        0.0983
     14 C          63.5334   81.3013   10.8493 C.ar    1  UNL1        0.1193
     15 N          62.6764   80.9212   12.0203 N.ar    1  UNL1       -0.2223
     16 C          62.4984   82.1382   12.8789 C.ar    1  UNL1        0.1788
     17 C          65.4934   84.8875   14.1939 C.3     1  UNL1        0.0197
     18 C          63.9987   84.9411   14.0802 C.3     1  UNL1        0.0827
     19 N          63.1659   85.2624   15.2858 N.3     1  UNL1       -0.2696
     20 C          63.5151   86.4404   16.1463 C.3     1  UNL1        0.0897
     21 C          61.9840   84.4057   15.6308 C.3     1  UNL1        0.0897
     22 O          59.5664   90.0716    7.6235 O.3     1  UNL1       -0.4706
     23 C          59.2007   89.8679    6.1830 C.3     1  UNL1        0.2320
     24 C          59.7174   90.8111    5.1374 C.ar    1  UNL1        0.0214
     25 C          61.1709   90.7974    4.7674 C.ar    1  UNL1        0.0024
     26 C          61.6876   91.7407    3.7217 C.ar    1  UNL1        0.0367
     27 C          60.7507   92.6976    3.0462 C.ar    1  UNL1        0.1382
     28 C          59.2971   92.7113    3.4162 C.ar    1  UNL1        0.0367
     29 C          58.7805   91.7681    4.4618 C.ar    1  UNL1        0.0024
     30 O          61.2674   93.6409    2.0006 O.3     1  UNL1       -0.4826
     31 C          60.5587   93.7624    0.6842 C.3     1  UNL1        0.1334
     32 C          61.1537   92.4580    0.2434 C.3     1  UNL1        0.0436
     33 C          59.9636   95.0668    1.1249 C.3     1  UNL1        0.0436
     34 C          59.8500   93.8839   -0.6323 C.3     1  UNL1        0.0436
@<TRIPOS>BOND
     1    17    18    1
     2    18    11    1
     3    11     1    1
     4     1     2   ar
     5     2     3   ar
     6     3     4   ar
     7     4     5   ar
     8     5     6   ar
     9     6    22    1
    10    22    23    1
    11    23    24    1
    12    24    25   ar
    13    25    26   ar
    14    26    27   ar
    15    27    30    1
    16    30    31    1
    17    31    32    1
    18    31    33    1
    19    31    34    1
    20    27    28   ar
    21    28    29   ar
    22     6     7   ar
    23     7     8   ar
    24     8     9   ar
    25     9    10   ar
    26    11    12    1
    27    12    13   ar
    28    13    14   ar
    29    14    15   ar
    30    15    16   ar
    31    18    19    1
    32    19    20    1
    33    19    21    1
    34    10     1   ar
    35    16    12   ar
    36     9     4   ar
    37    29    24   ar
@<TRIPOS>MOLECULE
*****
 34 37 0 0 0
SMALL
GASTEIGER

@<TRIPOS>ATOM
      1 C          62.4638   85.8877   11.6688 C.ar    1  UNL1       -0.0004
      2 C          62.8655   87.2941   12.0011 C.ar    1  UNL1       -0.0024
      3 C          62.3321   88.4379   11.1904 C.ar    1  UNL1       -0.0002
      4 C          61.3969   88.1752   10.0474 C.ar    1  UNL1        0.0030
      5 C          60.8634   89.3190    9.2367 C.ar    1  UNL1        0.0369
      6 C          59.9283   89.0563    8.0937 C.ar    1  UNL1        0.1391
      7 C          59.5265   87.6497    7.7615 C.ar    1  UNL1        0.0369
      8 C          60.0599   86.5060    8.5722 C.ar    1  UNL1        0.0031
      9 C          60.9951   86.7687    9.7151 C.ar    1  UNL1       -0.0001
     10 C          61.5286   85.6250   10.5258 C.ar    1  UNL1       -0.0024
     11 C          62.9972   84.7439   12.4795 C.3     1  UNL1        0.1240
     12 N          63.0830   84.8587   13.9727 N.ar    1  UNL1       -0.3045
     13 C          64.2289   85.4381   14.7480 C.ar    1  UNL1        0.0983
     14 C          63.8921   85.3518   16.2072 C.ar    1  UNL1        0.1193
     15 N          62.5381   84.7189   16.3336 N.ar    1  UNL1       -0.2223
     16 C          62.0381   84.4141   14.9527 C.ar    1  UNL1        0.1788
     17 C          63.9881   83.5422   10.4001 C.3     1  UNL1        0.0197
     18 C          63.4448   83.4854   11.7971 C.3     1  UNL1        0.0827
     19 N          63.3491   82.1700   12.5116 N.3     1  UNL1       -0.2696
     20 C          64.5737   81.5595   13.1262 C.3     1  UNL1        0.0897
     21 C          62.0288   81.4651   12.6116 C.3     1  UNL1        0.0897
     22 O          59.3948   90.2000    7.2830 O.3     1  UNL1       -0.4706
     23 C          59.1520   90.0282    5.8128 C.3     1  UNL1        0.2320
     24 C          59.8071   90.9541    4.8312 C.ar    1  UNL1        0.0214
     25 C          61.2698   90.8144    4.5296 C.ar    1  UNL1        0.0024
     26 C          61.9250   91.7403    3.5480 C.ar    1  UNL1        0.0367
     27 C          61.1174   92.8060    2.8681 C.ar    1  UNL1        0.1382
     28 C          59.6547   92.9457    3.1697 C.ar    1  UNL1        0.0367
     29 C          58.9996   92.0198    4.1513 C.ar    1  UNL1        0.0024
     30 O          61.7726   93.7318    1.8865 O.3     1  UNL1       -0.4826
     31 C          61.1863   93.9102    0.5174 C.3     1  UNL1        0.1334
     32 C          60.9265   95.3568    0.8171 C.3     1  UNL1        0.0436
     33 C          61.4461   92.4636    0.2177 C.3     1  UNL1        0.0436
     34 C          60.6000   94.0886   -0.8517 C.3     1  UNL1        0.0436
@<TRIPOS>BOND
     1    17    18    1
     2    18    11    1
     3    11     1    1
     4     1     2   ar
     5     2     3   ar
     6     3     4   ar
     7     4     5   ar
     8     5     6   ar
     9     6    22    1
    10    22    23    1
    11    23    24    1
    12    24    25   ar
    13    25    26   ar
    14    26    27   ar
    15    27    30    1
    16    30    31    1
    17    31    32    1
    18    31    33    1
    19    31    34    1
    20    27    28   ar
    21    28    29   ar
    22     6     7   ar
    23     7     8   ar
    24     8     9   ar
    25     9    10   ar
    26    11    12    1
    27    12    13   ar
    28    13    14   ar
    29    14    15   ar
    30    15    16   ar
    31    18    19    1
    32    19    20    1
    33    19    21    1
    34    10     1   ar
    35    16    12   ar
    36     9     4   ar
    37    29    24   ar
@<TRIPOS>MOLECULE
*****
 34 37 0 0 0
SMALL
GASTEIGER

@<TRIPOS>ATOM
      1 C          61.4017   93.1909    2.1209 C.ar    1  UNL1       -0.0004
      2 C          62.5109   92.3347    2.6561 C.ar    1  UNL1       -0.0024
      3 C          62.2415   91.3694    3.7721 C.ar    1  UNL1       -0.0002
      4 C          60.8628   91.2603    4.3529 C.ar    1  UNL1        0.0030
      5 C          60.5933   90.2949    5.4690 C.ar    1  UNL1        0.0369
      6 C          59.2146   90.1858    6.0497 C.ar    1  UNL1        0.1391
      7 C          58.1054   91.0420    5.5144 C.ar    1  UNL1        0.0369
      8 C          58.3748   92.0073    4.3984 C.ar    1  UNL1        0.0031
      9 C          59.7535   92.1165    3.8177 C.ar    1  UNL1       -0.0001
     10 C          60.0230   93.0818    2.7017 C.ar    1  UNL1       -0.0024
     11 C          61.6711   94.1563    1.0048 C.3     1  UNL1        0.1240
     12 N          63.0327   94.7674    0.8541 N.ar    1  UNL1       -0.3045
     13 C          63.6480   95.7859    1.7674 C.ar    1  UNL1        0.0983
     14 C          65.0136   96.1152    1.2413 C.ar    1  UNL1        0.1193
     15 N          65.2423   95.3003    0.0030 N.ar    1  UNL1       -0.2223
     16 C          64.0180   94.4673   -0.2363 C.ar    1  UNL1        0.1788
     17 C          59.7842   95.7677    0.2347 C.3     1  UNL1        0.0197
     18 C          60.5790   94.5106    0.0396 C.3     1  UNL1        0.0827
     19 N          60.2816   93.6077   -1.1208 N.3     1  UNL1       -0.2696
     20 C          61.0862   93.7177   -2.3820 C.3     1  UNL1        0.0897
     21 C          59.1797   92.5950   -1.0199 C.3     1  UNL1        0.0897
     22 O          58.9452   89.2204    7.1657 O.3     1  UNL1       -0.4706
     23 C          60.0670   88.4087    7.7426 C.3     1  UNL1        0.2320
     24 C          60.6257   88.7532    9.0913 C.ar    1  UNL1        0.0214
     25 C          61.7839   87.9767    9.6439 C.ar    1  UNL1        0.0024
     26 C          62.3427   88.3212   10.9927 C.ar    1  UNL1        0.0367
     27 C          61.7432   89.4424   11.7888 C.ar    1  UNL1        0.1382
     28 C          60.5849   90.2189   11.2360 C.ar    1  UNL1        0.0367
     29 C          60.0262   89.8744    9.8873 C.ar    1  UNL1        0.0024
     30 O          62.3019   89.7869   13.1375 O.3     1  UNL1       -0.4826
     31 C          63.6940   90.3328   13.2554 C.3     1  UNL1        0.1334
     32 C          63.4147   91.2876   12.1328 C.3     1  UNL1        0.0436
     33 C          63.9734   89.3780   14.3780 C.3     1  UNL1        0.0436
     34 C          65.0862   90.8788   13.3733 C.3     1  UNL1        0.0436
@<TRIPOS>BOND
     1    17    18    1
     2    18    11    1
     3    11     1    1
     4     1     2   ar
     5     2     3   ar
     6     3     4   ar
     7     4     5   ar
     8     5     6   ar
     9     6    22    1
    10    22    23    1
    11    23    24    1
    12    24    25   ar
    13    25    26   ar
    14    26    27   ar
    15    27    30    1
    16    30    31    1
    17    31    32    1
    18    31    33    1
    19    31    34    1
    20    27    28   ar
    21    28    29   ar
    22     6     7   ar
    23     7     8   ar
    24     8     9   ar
    25     9    10   ar
    26    11    12    1
    27    12    13   ar
    28    13    14   ar
    29    14    15   ar
    30    15    16   ar
    31    18    19    1
    32    19    20    1
    33    19    21    1
    34    10     1   ar
    35    16    12   ar
    36     9     4   ar
    37    29    24   ar
@<TRIPOS>MOLECULE
*****
 34 37 0 0 0
SMALL
GASTEIGER

@<TRIPOS>ATOM
      1 C          61.4102   93.1146    2.0941 C.ar    1  UNL1       -0.0004
      2 C          62.5114   92.2599    2.6478 C.ar    1  UNL1       -0.0024
      3 C          62.2317   91.3171    3.7804 C.ar    1  UNL1       -0.0002
      4 C          60.8507   91.2289    4.3592 C.ar    1  UNL1        0.0030
      5 C          60.5710   90.2860    5.4919 C.ar    1  UNL1        0.0369
      6 C          59.1899   90.1979    6.0707 C.ar    1  UNL1        0.1391
      7 C          58.0887   91.0527    5.5169 C.ar    1  UNL1        0.0369
      8 C          58.3684   91.9955    4.3843 C.ar    1  UNL1        0.0031
      9 C          59.7494   92.0836    3.8055 C.ar    1  UNL1       -0.0001
     10 C          60.0292   93.0265    2.6729 C.ar    1  UNL1       -0.0024
     11 C          61.6899   94.0575    0.9615 C.3     1  UNL1        0.1240
     12 N          60.6848   94.2269   -0.1390 N.ar    1  UNL1       -0.3045
     13 C          59.9402   95.4871   -0.4667 C.ar    1  UNL1        0.0983
     14 C          59.0430   95.2050   -1.6352 C.ar    1  UNL1        0.1193
     15 N          59.2330   93.7703   -2.0297 N.ar    1  UNL1       -0.2223
     16 C          60.2477   93.1659   -1.1050 C.ar    1  UNL1        0.1788
     17 C          63.1111   96.0923    1.7296 C.3     1  UNL1        0.0197
     18 C          62.9747   94.8309    0.9293 C.3     1  UNL1        0.0827
     19 N          64.1232   94.3430    0.0969 N.3     1  UNL1       -0.2696
     20 C          64.1018   94.5266   -1.3917 C.3     1  UNL1        0.0897
     21 C          65.2931   93.6715    0.7530 C.3     1  UNL1        0.0897
     22 O          58.9102   89.2551    7.2033 O.3     1  UNL1       -0.4706
     23 C          60.0191   88.4260    7.7804 C.3     1  UNL1        0.2320
     24 C          60.5908   88.7690    9.1241 C.ar    1  UNL1        0.0214
     25 C          60.0183   89.9084    9.9139 C.ar    1  UNL1        0.0024
     26 C          60.5899   90.2515   11.2577 C.ar    1  UNL1        0.0367
     27 C          61.7340   89.4551   11.8115 C.ar    1  UNL1        0.1382
     28 C          62.3065   88.3156   11.0216 C.ar    1  UNL1        0.0367
     29 C          61.7349   87.9726    9.6779 C.ar    1  UNL1        0.0024
     30 O          62.3057   89.7981   13.1552 O.3     1  UNL1       -0.4826
     31 C          63.7018   90.3362   13.2611 C.3     1  UNL1        0.1334
     32 C          63.4306   91.2653   12.1152 C.3     1  UNL1        0.0436
     33 C          63.9730   89.4070   14.4070 C.3     1  UNL1        0.0436
     34 C          65.0980   90.8743   13.3669 C.3     1  UNL1        0.0436
@<TRIPOS>BOND
     1    17    18    1
     2    18    11    1
     3    11     1    1
     4     1     2   ar
     5     2     3   ar
     6     3     4   ar
     7     4     5   ar
     8     5     6   ar
     9     6    22    1
    10    22    23    1
    11    23    24    1
    12    24    25   ar
    13    25    26   ar
    14    26    27   ar
    15    27    30    1
    16    30    31    1
    17    31    32    1
    18    31    33    1
    19    31    34    1
    20    27    28   ar
    21    28    29   ar
    22     6     7   ar
    23     7     8   ar
    24     8     9   ar
    25     9    10   ar
    26    11    12    1
    27    12    13   ar
    28    13    14   ar
    29    14    15   ar
    30    15    16   ar
    31    18    19    1
    32    19    20    1
    33    19    21    1
    34    10     1   ar
    35    16    12   ar
    36     9     4   ar
    37    29    24   ar
@<TRIPOS>MOLECULE
*****
 34 37 0 0 0
SMALL
GASTEIGER

@<TRIPOS>ATOM
      1 C          61.3831   93.2952    2.1063 C.ar    1  UNL1       -0.0004
      2 C          62.5497   92.4591    2.5422 C.ar    1  UNL1       -0.0024
      3 C          62.3795   91.4464    3.6355 C.ar    1  UNL1       -0.0002
      4 C          61.0428   91.2697    4.2929 C.ar    1  UNL1        0.0030
      5 C          60.8728   90.2568    5.3862 C.ar    1  UNL1        0.0369
      6 C          59.5361   90.0801    6.0435 C.ar    1  UNL1        0.1391
      7 C          58.3695   90.9163    5.6075 C.ar    1  UNL1        0.0369
      8 C          58.5396   91.9290    4.5142 C.ar    1  UNL1        0.0031
      9 C          59.8763   92.1057    3.8569 C.ar    1  UNL1       -0.0001
     10 C          60.0464   93.1185    2.7636 C.ar    1  UNL1       -0.0024
     11 C          61.5532   94.3080    1.0129 C.3     1  UNL1        0.1240
     12 N          60.4419   94.5495    0.0348 N.ar    1  UNL1       -0.3045
     13 C          60.1958   93.7784   -1.2281 C.ar    1  UNL1        0.0983
     14 C          58.9834   94.3568   -1.8956 C.ar    1  UNL1        0.1193
     15 N          58.4802   95.4854   -1.0452 N.ar    1  UNL1       -0.2223
     16 C          59.3816   95.6044    0.1478 C.ar    1  UNL1        0.1788
     17 C          63.0163   96.3514    1.6715 C.3     1  UNL1        0.0197
     18 C          62.8345   95.0792    0.8977 C.3     1  UNL1        0.0827
     19 N          63.9341   94.5784    0.0088 N.3     1  UNL1       -0.2696
     20 C          65.1493   93.9354    0.6087 C.3     1  UNL1        0.0897
     21 C          63.8184   94.7206   -1.4799 C.3     1  UNL1        0.0897
     22 O          59.3660   89.0674    7.1368 O.3     1  UNL1       -0.4706
     23 C          59.7998   89.3933    8.5353 C.3     1  UNL1        0.2320
     24 C          60.6169   88.4072    9.3161 C.ar    1  UNL1        0.0214
     25 C          60.3582   86.9369    9.1705 C.ar    1  UNL1        0.0024
     26 C          61.1754   85.9506    9.9514 C.ar    1  UNL1        0.0367
     27 C          62.2512   86.4348   10.8778 C.ar    1  UNL1        0.1382
     28 C          62.5098   87.9051   11.0234 C.ar    1  UNL1        0.0367
     29 C          61.6927   88.8913   10.2426 C.ar    1  UNL1        0.0024
     30 O          63.0683   85.4486   11.6587 O.3     1  UNL1       -0.4826
     31 C          63.0561   83.9974   11.2793 C.3     1  UNL1        0.1334
     32 C          62.5148   83.6479   12.6338 C.3     1  UNL1        0.0436
     33 C          63.5974   84.3470    9.9248 C.3     1  UNL1        0.0436
     34 C          63.0440   82.5462   10.8999 C.3     1  UNL1        0.0436
@<TRIPOS>BOND
     1    17    18    1
     2    18    11    1
     3    11     1    1
     4     1     2   ar
     5     2     3   ar
     6     3     4   ar
     7     4     5   ar
     8     5     6   ar
     9     6    22    1
    10    22    23    1
    11    23    24    1
    12    24    25   ar
    13    25    26   ar
    14    26    27   ar
    15    27    30    1
    16    30    31    1
    17    31    32    1
    18    31    33    1
    19    31    34    1
    20    27    28   ar
    21    28    29   ar
    22     6     7   ar
    23     7     8   ar
    24     8     9   ar
    25     9    10   ar
    26    11    12    1
    27    12    13   ar
    28    13    14   ar
    29    14    15   ar
    30    15    16   ar
    31    18    19    1
    32    19    20    1
    33    19    21    1
    34    10     1   ar
    35    16    12   ar
    36     9     4   ar
    37    29    24   ar
@<TRIPOS>MOLECULE
*****
 34 37 0 0 0
SMALL
GASTEIGER

@<TRIPOS>ATOM
      1 C          63.1136   89.6459   12.6674 C.ar    1  UNL1       -0.0004
      2 C          62.5004   90.8905   12.0975 C.ar    1  UNL1       -0.0024
      3 C          61.6516   90.8109   10.8634 C.ar    1  UNL1       -0.0002
      4 C          61.4161   89.4868   10.1991 C.ar    1  UNL1        0.0030
      5 C          60.5672   89.4073    8.9649 C.ar    1  UNL1        0.0369
      6 C          60.3317   88.0832    8.3007 C.ar    1  UNL1        0.1391
      7 C          60.9451   86.8385    8.8706 C.ar    1  UNL1        0.0369
      8 C          61.7939   86.9181   10.1048 C.ar    1  UNL1        0.0031
      9 C          62.0294   88.2422   10.7690 C.ar    1  UNL1       -0.0001
     10 C          62.8781   88.3218   12.0032 C.ar    1  UNL1       -0.0024
     11 C          63.9625   89.7254   13.9017 C.3     1  UNL1        0.1240
     12 N          63.8592   88.6603   14.9528 N.ar    1  UNL1       -0.3045
     13 C          64.4527   87.2848   14.8756 C.ar    1  UNL1        0.0983
     14 C          64.1046   86.5581   16.1408 C.ar    1  UNL1        0.1193
     15 N          63.2960   87.4843   16.9999 N.ar    1  UNL1       -0.2223
     16 C          63.1443   88.7835   16.2657 C.ar    1  UNL1        0.1788
     17 C          65.7834   91.3125   12.9448 C.3     1  UNL1        0.0197
     18 C          64.9145   90.8700   14.0847 C.3     1  UNL1        0.0827
     19 N          64.9978   91.5720   15.4076 N.3     1  UNL1       -0.2696
     20 C          66.2706   92.2521   15.8170 C.3     1  UNL1        0.0897
     21 C          63.8083   91.5941   16.3212 C.3     1  UNL1        0.0897
     22 O          59.4830   88.0036    7.0665 O.3     1  UNL1       -0.4706
     23 C          58.5194   89.1078    6.7465 C.3     1  UNL1        0.2320
     24 C          58.9197   90.2023    5.8021 C.ar    1  UNL1        0.0214
     25 C          60.3615   90.3809    5.4290 C.ar    1  UNL1        0.0024
     26 C          60.7619   91.4754    4.4847 C.ar    1  UNL1        0.0367
     27 C          59.7203   92.3914    3.9134 C.ar    1  UNL1        0.1382
     28 C          58.2785   92.2128    4.2866 C.ar    1  UNL1        0.0367
     29 C          57.8782   91.1183    5.2309 C.ar    1  UNL1        0.0024
     30 O          60.1206   93.4859    2.9691 O.3     1  UNL1       -0.4826
     31 C          60.6485   93.1454    1.6070 C.3     1  UNL1        0.1334
     32 C          59.2461   93.0880    1.0779 C.3     1  UNL1        0.0436
     33 C          62.0508   93.2027    2.1361 C.3     1  UNL1        0.0436
     34 C          61.1763   92.8049    0.2448 C.3     1  UNL1        0.0436
@<TRIPOS>BOND
     1    17    18    1
     2    18    11    1
     3    11     1    1
     4     1     2   ar
     5     2     3   ar
     6     3     4   ar
     7     4     5   ar
     8     5     6   ar
     9     6    22    1
    10    22    23    1
    11    23    24    1
    12    24    25   ar
    13    25    26   ar
    14    26    27   ar
    15    27    30    1
    16    30    31    1
    17    31    32    1
    18    31    33    1
    19    31    34    1
    20    27    28   ar
    21    28    29   ar
    22     6     7   ar
    23     7     8   ar
    24     8     9   ar
    25     9    10   ar
    26    11    12    1
    27    12    13   ar
    28    13    14   ar
    29    14    15   ar
    30    15    16   ar
    31    18    19    1
    32    19    20    1
    33    19    21    1
    34    10     1   ar
    35    16    12   ar
    36     9     4   ar
    37    29    24   ar
