@<TRIPOS>MOLECULE
*****
 26 28 0 0 0
SMALL
GASTEIGER

@<TRIPOS>ATOM
      1 N          64.3991   87.6735   14.5779 N.am    1  UNL1       -0.2969
      2 C          63.9098   89.0830   14.7326 C.2     1  UNL1        0.2461
      3 O          62.8449   89.4010   15.7400 O.2     1  UNL1       -0.2701
      4 H          65.0981   87.4648   13.9168 H       1  UNL1        0.1501
      5 C          64.4855   90.1746   13.8799 C.ar    1  UNL1        0.0534
      6 C          63.8275   90.5383   12.5819 C.ar    1  UNL1        0.0045
      7 C          64.4032   91.6298   11.7292 C.ar    1  UNL1        0.0001
      8 C          65.6369   92.3577   12.1745 C.ar    1  UNL1        0.0001
      9 C          66.2949   91.9939   13.4725 C.ar    1  UNL1        0.0001
     10 C          65.7192   90.9023   14.3252 C.ar    1  UNL1        0.0045
     11 C          66.2126   93.4492   11.3218 C.ar    1  UNL1        0.0031
     12 C          66.9893   93.1046   10.0857 C.ar    1  UNL1        0.0207
     13 C          67.5649   94.1961    9.2330 C.ar    1  UNL1        0.0989
     14 N          67.3639   95.6324    9.6164 N.ar    1  UNL1       -0.2423
     15 C          66.5872   95.9770   10.8525 C.ar    1  UNL1        0.0989
     16 C          66.0116   94.8853   11.7053 C.ar    1  UNL1        0.0207
     17 C          63.8235   86.5819   15.4306 C.3     1  UNL1        0.1167
     18 C          64.1356   83.4079   13.0688 C.ar    1  UNL1        0.1383
     19 C          63.1120   82.4979   13.6802 C.ar    1  UNL1        0.0369
     20 C          62.3255   82.9491   14.8751 C.ar    1  UNL1        0.0028
     21 C          62.5626   84.3105   15.4586 C.ar    1  UNL1       -0.0024
     22 C          63.5863   85.2205   14.8471 C.ar    1  UNL1        0.0005
     23 C          64.3728   84.7693   13.6523 C.ar    1  UNL1        0.0343
     24 O          64.9222   82.9567   11.8739 O.3     1  UNL1       -0.4755
     25 C          63.5196   84.0323    9.9697 C.3     1  UNL1        0.0512
     26 C          64.2570   82.8539   10.5334 C.3     1  UNL1        0.2055
@<TRIPOS>BOND
     1    25    26    1
     2    26    24    1
     3    24    18    1
     4    18    19   ar
     5    19    20   ar
     6    20    21   ar
     7    21    22   ar
     8    22    17    1
     9    17     1    1
    10     1     2   am
    11     2     3    2
    12     2     5    1
    13     5     6   ar
    14     6     7   ar
    15     7     8   ar
    16     8    11    1
    17    11    12   ar
    18    12    13   ar
    19    13    14   ar
    20    14    15   ar
    21    15    16   ar
    22     8     9   ar
    23     9    10   ar
    24    22    23   ar
    25    23    18   ar
    26    10     5   ar
    27    16    11   ar
    28     1     4    1
@<TRIPOS>MOLECULE
*****
 26 28 0 0 0
SMALL
GASTEIGER

@<TRIPOS>ATOM
      1 N          64.0385   89.5746   14.8527 N.am    1  UNL1       -0.2969
      2 C          63.7406   89.0449   13.4812 C.2     1  UNL1        0.2461
      3 O          63.6198   89.9895   12.3223 O.2     1  UNL1       -0.2701
      4 H          64.1178   88.9546   15.6133 H       1  UNL1        0.1501
      5 C          63.5635   87.5706   13.2688 C.ar    1  UNL1        0.0534
      6 C          62.7866   87.0711   12.0869 C.ar    1  UNL1        0.0045
      7 C          62.6095   85.5969   11.8745 C.ar    1  UNL1        0.0001
      8 C          63.2094   84.6220   12.8440 C.ar    1  UNL1        0.0001
      9 C          63.9864   85.1215   14.0259 C.ar    1  UNL1        0.0001
     10 C          64.1634   86.5958   14.2383 C.ar    1  UNL1        0.0045
     11 C          63.0324   83.1477   12.6315 C.ar    1  UNL1        0.0031
     12 C          63.2858   82.5490   11.2798 C.ar    1  UNL1        0.0207
     13 C          63.1088   81.0747   11.0674 C.ar    1  UNL1        0.0989
     14 N          62.6782   80.1991   12.2067 N.ar    1  UNL1       -0.2423
     15 C          62.4248   80.7979   13.5585 C.ar    1  UNL1        0.0989
     16 C          62.6018   82.2723   13.7709 C.ar    1  UNL1        0.0207
     17 C          64.2155   91.0488   15.0651 C.3     1  UNL1        0.1167
     18 C          67.6993   92.1478   13.5140 C.ar    1  UNL1        0.1383
     19 C          68.2946   92.9061   14.6632 C.ar    1  UNL1        0.0369
     20 C          67.5303   93.0452   15.9463 C.ar    1  UNL1        0.0028
     21 C          66.1706   92.4262   16.0803 C.ar    1  UNL1       -0.0024
     22 C          65.5753   91.6679   14.9312 C.ar    1  UNL1        0.0005
     23 C          66.3396   91.5288   13.6480 C.ar    1  UNL1        0.0343
     24 O          68.4636   92.0087   12.2309 O.3     1  UNL1       -0.4755
     25 C          68.5759   92.2713    9.6486 C.3     1  UNL1        0.0512
     26 C          67.7793   92.2576   10.9195 C.3     1  UNL1        0.2055
@<TRIPOS>BOND
     1    25    26    1
     2    26    24    1
     3    24    18    1
     4    18    19   ar
     5    19    20   ar
     6    20    21   ar
     7    21    22   ar
     8    22    17    1
     9    17     1    1
    10     1     2   am
    11     2     3    2
    12     2     5    1
    13     5     6   ar
    14     6     7   ar
    15     7     8   ar
    16     8    11    1
    17    11    12   ar
    18    12    13   ar
    19    13    14   ar
    20    14    15   ar
    21    15    16   ar
    22     8     9   ar
    23     9    10   ar
    24    22    23   ar
    25    23    18   ar
    26    10     5   ar
    27    16    11   ar
    28     1     4    1
@<TRIPOS>MOLECULE
*****
 26 28 0 0 0
SMALL
GASTEIGER

@<TRIPOS>ATOM
      1 N          61.5885   90.2471   10.0809 N.am    1  UNL1       -0.2969
      2 C          61.8616   89.9190   11.5189 C.2     1  UNL1        0.2461
      3 O          60.9116   89.0443   12.2821 O.2     1  UNL1       -0.2701
      4 H          62.2120   90.8212    9.5800 H       1  UNL1        0.1501
      5 C          63.0846   90.4656   12.1937 C.ar    1  UNL1        0.0534
      6 C          63.8662   91.5714   11.5485 C.ar    1  UNL1        0.0045
      7 C          65.0893   92.1180   12.2233 C.ar    1  UNL1        0.0001
      8 C          65.5308   91.5588   13.5433 C.ar    1  UNL1        0.0001
      9 C          64.7491   90.4530   14.1885 C.ar    1  UNL1        0.0001
     10 C          63.5260   89.9064   13.5137 C.ar    1  UNL1        0.0045
     11 C          66.7538   92.1054   14.2181 C.ar    1  UNL1        0.0031
     12 C          66.6187   92.9193   15.4708 C.ar    1  UNL1        0.0207
     13 C          67.8418   93.4659   16.1456 C.ar    1  UNL1        0.0989
     14 N          69.2000   93.1986   15.5676 N.ar    1  UNL1       -0.2423
     15 C          69.3350   92.3846   14.3149 C.ar    1  UNL1        0.0989
     16 C          68.1119   91.8380   13.6402 C.ar    1  UNL1        0.0207
     17 C          60.3655   89.7005    9.4061 C.3     1  UNL1        0.1167
     18 C          61.6141   86.0694    8.4029 C.ar    1  UNL1        0.1383
     19 C          60.4405   85.5750    7.6105 C.ar    1  UNL1        0.0369
     20 C          59.2419   86.4556    7.4165 C.ar    1  UNL1        0.0028
     21 C          59.2168   87.8308    8.0151 C.ar    1  UNL1       -0.0024
     22 C          60.3904   88.3253    8.8075 C.ar    1  UNL1        0.0005
     23 C          61.5891   87.4446    9.0015 C.ar    1  UNL1        0.0343
     24 O          62.8128   85.1888    8.5969 O.3     1  UNL1       -0.4755
     25 C          63.9052   83.3482   10.0696 C.3     1  UNL1        0.0512
     26 C          63.1108   84.6150    9.9503 C.3     1  UNL1        0.2055
@<TRIPOS>BOND
     1    25    26    1
     2    26    24    1
     3    24    18    1
     4    18    19   ar
     5    19    20   ar
     6    20    21   ar
     7    21    22   ar
     8    22    17    1
     9    17     1    1
    10     1     2   am
    11     2     3    2
    12     2     5    1
    13     5     6   ar
    14     6     7   ar
    15     7     8   ar
    16     8    11    1
    17    11    12   ar
    18    12    13   ar
    19    13    14   ar
    20    14    15   ar
    21    15    16   ar
    22     8     9   ar
    23     9    10   ar
    24    22    23   ar
    25    23    18   ar
    26    10     5   ar
    27    16    11   ar
    28     1     4    1
@<TRIPOS>MOLECULE
*****
 26 28 0 0 0
SMALL
GASTEIGER

@<TRIPOS>ATOM
      1 N          63.2351   89.4092   13.0734 N.am    1  UNL1       -0.2969
      2 C          62.8197   88.5970   11.8827 C.2     1  UNL1        0.2461
      3 O          62.4367   89.2819   10.6043 O.2     1  UNL1       -0.2701
      4 H          63.4864   88.9597   13.9125 H       1  UNL1        0.1501
      5 C          62.7872   87.0999   11.9704 C.ar    1  UNL1        0.0534
      6 C          62.1529   86.2979   10.8730 C.ar    1  UNL1        0.0045
      7 C          62.1204   84.8009   10.9607 C.ar    1  UNL1        0.0001
      8 C          62.7222   84.1058   12.1459 C.ar    1  UNL1        0.0001
      9 C          63.3565   84.9078   13.2434 C.ar    1  UNL1        0.0001
     10 C          63.3890   86.4049   13.1556 C.ar    1  UNL1        0.0045
     11 C          62.6897   82.6087   12.2336 C.ar    1  UNL1        0.0031
     12 C          62.2087   81.9412   13.4878 C.ar    1  UNL1        0.0207
     13 C          62.1762   80.4441   13.5756 C.ar    1  UNL1        0.0989
     14 N          62.6247   79.6145   12.4090 N.ar    1  UNL1       -0.2423
     15 C          63.1057   80.2821   11.1549 C.ar    1  UNL1        0.0989
     16 C          63.1382   81.7792   11.0672 C.ar    1  UNL1        0.0207
     17 C          63.2676   90.9063   12.9857 C.3     1  UNL1        0.1167
     18 C          66.8305   92.6475   12.8302 C.ar    1  UNL1        0.1383
     19 C          66.9166   92.9869   11.3717 C.ar    1  UNL1        0.0369
     20 C          65.7865   92.6328   10.4511 C.ar    1  UNL1        0.0028
     21 C          64.5701   91.9393   10.9891 C.ar    1  UNL1       -0.0024
     22 C          64.4840   91.5999   12.4476 C.ar    1  UNL1        0.0005
     23 C          65.6141   91.9539   13.3682 C.ar    1  UNL1        0.0343
     24 O          67.9606   93.0016   13.7507 O.3     1  UNL1       -0.4755
     25 C          67.9660   92.4678   16.2933 C.3     1  UNL1        0.0512
     26 C          68.3179   92.0881   14.8855 C.3     1  UNL1        0.2055
@<TRIPOS>BOND
     1    25    26    1
     2    26    24    1
     3    24    18    1
     4    18    19   ar
     5    19    20   ar
     6    20    21   ar
     7    21    22   ar
     8    22    17    1
     9    17     1    1
    10     1     2   am
    11     2     3    2
    12     2     5    1
    13     5     6   ar
    14     6     7   ar
    15     7     8   ar
    16     8    11    1
    17    11    12   ar
    18    12    13   ar
    19    13    14   ar
    20    14    15   ar
    21    15    16   ar
    22     8     9   ar
    23     9    10   ar
    24    22    23   ar
    25    23    18   ar
    26    10     5   ar
    27    16    11   ar
    28     1     4    1
@<TRIPOS>MOLECULE
*****
 26 28 0 0 0
SMALL
GASTEIGER

@<TRIPOS>ATOM
      1 N          63.2309   89.6273   10.7274 N.am    1  UNL1       -0.2969
      2 C          62.7990   88.9079   11.9709 C.2     1  UNL1        0.2461
      3 O          62.3815   89.6882   13.1820 O.2     1  UNL1       -0.2701
      4 H          63.5050   89.1152    9.9325 H       1  UNL1        0.1501
      5 C          62.7848   87.4084   12.0032 C.ar    1  UNL1        0.0534
      6 C          62.0992   86.6412   10.9117 C.ar    1  UNL1        0.0045
      7 C          62.0849   85.1416   10.9439 C.ar    1  UNL1        0.0001
      8 C          62.7562   84.4092   12.0678 C.ar    1  UNL1        0.0001
      9 C          63.4418   85.1764   13.1593 C.ar    1  UNL1        0.0001
     10 C          63.4561   86.6760   13.1269 C.ar    1  UNL1        0.0045
     11 C          62.7420   82.9096   12.1000 C.ar    1  UNL1        0.0031
     12 C          63.1823   82.1293   10.8970 C.ar    1  UNL1        0.0207
     13 C          63.1681   80.6298   10.9293 C.ar    1  UNL1        0.0989
     14 N          62.7134   79.9105   12.1646 N.ar    1  UNL1       -0.2423
     15 C          62.2731   80.6908   13.3676 C.ar    1  UNL1        0.0989
     16 C          62.2873   82.1904   13.3353 C.ar    1  UNL1        0.0207
     17 C          63.2452   91.1269   10.6952 C.3     1  UNL1        0.1167
     18 C          66.3789   93.5317   11.0785 C.ar    1  UNL1        0.1383
     19 C          66.6716   93.3847   12.5423 C.ar    1  UNL1        0.0369
     20 C          65.8222   92.4851   13.3904 C.ar    1  UNL1        0.0028
     21 C          64.6801   91.7325   12.7747 C.ar    1  UNL1       -0.0024
     22 C          64.3873   91.8795   11.3109 C.ar    1  UNL1        0.0005
     23 C          65.2368   92.7791   10.4628 C.ar    1  UNL1        0.0343
     24 O          67.2283   94.4312   10.2304 O.3     1  UNL1       -0.4755
     25 C          68.7916   92.5511    9.3522 C.3     1  UNL1        0.0512
     26 C          68.0750   93.8511    9.1366 C.3     1  UNL1        0.2055
@<TRIPOS>BOND
     1    25    26    1
     2    26    24    1
     3    24    18    1
     4    18    19   ar
     5    19    20   ar
     6    20    21   ar
     7    21    22   ar
     8    22    17    1
     9    17     1    1
    10     1     2   am
    11     2     3    2
    12     2     5    1
    13     5     6   ar
    14     6     7   ar
    15     7     8   ar
    16     8    11    1
    17    11    12   ar
    18    12    13   ar
    19    13    14   ar
    20    14    15   ar
    21    15    16   ar
    22     8     9   ar
    23     9    10   ar
    24    22    23   ar
    25    23    18   ar
    26    10     5   ar
    27    16    11   ar
    28     1     4    1
@<TRIPOS>MOLECULE
*****
 26 28 0 0 0
SMALL
GASTEIGER

@<TRIPOS>ATOM
      1 N          62.3105   88.5035   11.0619 N.am    1  UNL1       -0.2969
      2 C          63.0976   89.2499   12.0980 C.2     1  UNL1        0.2461
      3 O          63.1725   88.7284   13.5025 O.2     1  UNL1       -0.2701
      4 H          62.2613   88.8457   10.1401 H       1  UNL1        0.1501
      5 C          63.8098   90.5175   11.7296 C.ar    1  UNL1        0.0534
      6 C          63.5566   91.1604   10.3983 C.ar    1  UNL1        0.0045
      7 C          64.2688   92.4280   10.0299 C.ar    1  UNL1        0.0001
      8 C          65.2343   93.0529   10.9929 C.ar    1  UNL1        0.0001
      9 C          65.4875   92.4101   12.3243 C.ar    1  UNL1        0.0001
     10 C          64.7752   91.1423   12.6927 C.ar    1  UNL1        0.0045
     11 C          65.9465   94.3206   10.6246 C.ar    1  UNL1        0.0031
     12 C          65.7846   95.5460   11.4745 C.ar    1  UNL1        0.0207
     13 C          66.4968   96.8136   11.1061 C.ar    1  UNL1        0.0989
     14 N          67.3709   96.8560    9.8878 N.ar    1  UNL1       -0.2423
     15 C          67.5328   95.6306    9.0379 C.ar    1  UNL1        0.0989
     16 C          66.8205   94.3629    9.4064 C.ar    1  UNL1        0.0207
     17 C          61.5983   87.2359   11.4302 C.3     1  UNL1        0.1167
     18 C          63.1915   83.6661   12.1148 C.ar    1  UNL1        0.1383
     19 C          63.5773   83.2565   10.7244 C.ar    1  UNL1        0.0369
     20 C          63.3034   84.1734    9.5692 C.ar    1  UNL1        0.0028
     21 C          62.6438   85.4998    9.8045 C.ar    1  UNL1       -0.0024
     22 C          62.2580   85.9094   11.1949 C.ar    1  UNL1        0.0005
     23 C          62.5318   84.9925   12.3501 C.ar    1  UNL1        0.0343
     24 O          63.4653   82.7492   13.2700 O.3     1  UNL1       -0.4755
     25 C          62.4198   80.3725   13.1805 C.3     1  UNL1        0.0512
     26 C          62.4180   81.7731   13.7174 C.3     1  UNL1        0.2055
@<TRIPOS>BOND
     1    25    26    1
     2    26    24    1
     3    24    18    1
     4    18    19   ar
     5    19    20   ar
     6    20    21   ar
     7    21    22   ar
     8    22    17    1
     9    17     1    1
    10     1     2   am
    11     2     3    2
    12     2     5    1
    13     5     6   ar
    14     6     7   ar
    15     7     8   ar
    16     8    11    1
    17    11    12   ar
    18    12    13   ar
    19    13    14   ar
    20    14    15   ar
    21    15    16   ar
    22     8     9   ar
    23     9    10   ar
    24    22    23   ar
    25    23    18   ar
    26    10     5   ar
    27    16    11   ar
    28     1     4    1
@<TRIPOS>MOLECULE
*****
 26 28 0 0 0
SMALL
GASTEIGER

@<TRIPOS>ATOM
      1 N          63.4036   89.2457   12.8011 N.am    1  UNL1       -0.2969
      2 C          63.6324   88.1494   13.7990 C.2     1  UNL1        0.2461
      3 O          63.9965   88.4874   15.2143 O.2     1  UNL1       -0.2701
      4 H          63.1646   89.0239   11.8721 H       1  UNL1        0.1501
      5 C          63.4971   86.7150   13.3815 C.ar    1  UNL1        0.0534
      6 C          64.0876   85.6281   14.2299 C.ar    1  UNL1        0.0045
      7 C          63.9523   84.1937   13.8125 C.ar    1  UNL1        0.0001
      8 C          63.2264   83.8463   12.5466 C.ar    1  UNL1        0.0001
      9 C          62.6359   84.9332   11.6982 C.ar    1  UNL1        0.0001
     10 C          62.7712   86.3676   12.1157 C.ar    1  UNL1        0.0045
     11 C          63.0911   82.4119   12.1291 C.ar    1  UNL1        0.0031
     12 C          62.6593   81.3781   13.1264 C.ar    1  UNL1        0.0207
     13 C          62.5239   79.9437   12.7090 C.ar    1  UNL1        0.0989
     14 N          62.8204   79.5432   11.2941 N.ar    1  UNL1       -0.2423
     15 C          63.2522   80.5771   10.2968 C.ar    1  UNL1        0.0989
     16 C          63.3876   82.0115   10.7143 C.ar    1  UNL1        0.0207
     17 C          63.5389   90.6801   13.2185 C.3     1  UNL1        0.1167
     18 C          66.6565   92.9074   12.1844 C.ar    1  UNL1        0.1383
     19 C          67.5974   92.6215   13.3171 C.ar    1  UNL1        0.0369
     20 C          67.1854   91.6884   14.4169 C.ar    1  UNL1        0.0028
     21 C          65.8326   91.0413   14.3841 C.ar    1  UNL1       -0.0024
     22 C          64.8918   91.3272   13.2514 C.ar    1  UNL1        0.0005
     23 C          65.3038   92.2603   12.1515 C.ar    1  UNL1        0.0343
     24 O          67.0685   93.8404   11.0845 O.3     1  UNL1       -0.4755
     25 C          68.3428   92.1587    9.5686 C.3     1  UNL1        0.0512
     26 C          67.3817   93.3002    9.7207 C.3     1  UNL1        0.2055
@<TRIPOS>BOND
     1    25    26    1
     2    26    24    1
     3    24    18    1
     4    18    19   ar
     5    19    20   ar
     6    20    21   ar
     7    21    22   ar
     8    22    17    1
     9    17     1    1
    10     1     2   am
    11     2     3    2
    12     2     5    1
    13     5     6   ar
    14     6     7   ar
    15     7     8   ar
    16     8    11    1
    17    11    12   ar
    18    12    13   ar
    19    13    14   ar
    20    14    15   ar
    21    15    16   ar
    22     8     9   ar
    23     9    10   ar
    24    22    23   ar
    25    23    18   ar
    26    10     5   ar
    27    16    11   ar
    28     1     4    1
@<TRIPOS>MOLECULE
*****
 26 28 0 0 0
SMALL
GASTEIGER

@<TRIPOS>ATOM
      1 N          62.7944   86.9201   12.1275 N.am    1  UNL1       -0.2969
      2 C          62.4992   88.3864   12.2410 C.2     1  UNL1        0.2461
      3 O          61.1833   88.9256   11.7641 O.2     1  UNL1       -0.2701
      4 H          63.6581   86.5662   12.4406 H       1  UNL1        0.1501
      5 C          63.5200   89.3135   12.8313 C.ar    1  UNL1        0.0534
      6 C          63.8430   90.6080   12.1458 C.ar    1  UNL1        0.0045
      7 C          64.8637   91.5350   12.7362 C.ar    1  UNL1        0.0001
      8 C          65.5616   91.1676   14.0121 C.ar    1  UNL1        0.0001
      9 C          65.2387   89.8731   14.6977 C.ar    1  UNL1        0.0001
     10 C          64.2178   88.9460   14.1072 C.ar    1  UNL1        0.0045
     11 C          66.5824   92.0946   14.6025 C.ar    1  UNL1        0.0031
     12 C          67.6642   91.5525   15.4890 C.ar    1  UNL1        0.0207
     13 C          68.6849   92.4795   16.0793 C.ar    1  UNL1        0.0989
     14 N          68.6240   93.9488   15.7832 N.ar    1  UNL1       -0.2423
     15 C          67.5422   94.4909   14.8968 C.ar    1  UNL1        0.0989
     16 C          66.5214   93.5638   14.3064 C.ar    1  UNL1        0.0207
     17 C          61.7736   85.9930   11.5372 C.3     1  UNL1        0.1167
     18 C          60.4731   86.1208    7.7898 C.ar    1  UNL1        0.1383
     19 C          61.5819   85.4017    7.0803 C.ar    1  UNL1        0.0369
     20 C          62.7546   84.8797    7.8564 C.ar    1  UNL1        0.0028
     21 C          62.8186   85.0768    9.3420 C.ar    1  UNL1       -0.0024
     22 C          61.7098   85.7959   10.0515 C.ar    1  UNL1        0.0005
     23 C          60.5371   86.3179    9.2754 C.ar    1  UNL1        0.0343
     24 O          59.3004   86.6428    7.0138 O.3     1  UNL1       -0.4755
     25 C          59.5308   89.2305    6.9885 C.3     1  UNL1        0.0512
     26 C          58.7409   87.9998    7.3224 C.3     1  UNL1        0.2055
@<TRIPOS>BOND
     1    25    26    1
     2    26    24    1
     3    24    18    1
     4    18    19   ar
     5    19    20   ar
     6    20    21   ar
     7    21    22   ar
     8    22    17    1
     9    17     1    1
    10     1     2   am
    11     2     3    2
    12     2     5    1
    13     5     6   ar
    14     6     7   ar
    15     7     8   ar
    16     8    11    1
    17    11    12   ar
    18    12    13   ar
    19    13    14   ar
    20    14    15   ar
    21    15    16   ar
    22     8     9   ar
    23     9    10   ar
    24    22    23   ar
    25    23    18   ar
    26    10     5   ar
    27    16    11   ar
    28     1     4    1
@<TRIPOS>MOLECULE
*****
 26 28 0 0 0
SMALL
GASTEIGER

@<TRIPOS>ATOM
      1 N          61.5585   88.2582   11.8159 N.am    1  UNL1       -0.2969
      2 C          61.7587   89.7448   11.8047 C.2     1  UNL1        0.2461
      3 O          60.7027   90.6395   11.2264 O.2     1  UNL1       -0.2701
      4 H          62.2515   87.6710   12.1955 H       1  UNL1        0.1501
      5 C          63.0149   90.3366   12.3719 C.ar    1  UNL1        0.0534
      6 C          63.7794   91.3637   11.5905 C.ar    1  UNL1        0.0045
      7 C          65.0355   91.9556   12.1576 C.ar    1  UNL1        0.0001
      8 C          65.5273   91.5203   13.5063 C.ar    1  UNL1        0.0001
      9 C          64.7628   90.4932   14.2877 C.ar    1  UNL1        0.0001
     10 C          63.5066   89.9013   13.7205 C.ar    1  UNL1        0.0045
     11 C          66.7835   92.1121   14.0734 C.ar    1  UNL1        0.0031
     12 C          68.1154   91.7464   13.4886 C.ar    1  UNL1        0.0207
     13 C          69.3716   92.3382   14.0557 C.ar    1  UNL1        0.0989
     14 N          69.2959   93.2959   15.2078 N.ar    1  UNL1       -0.2423
     15 C          67.9639   93.6616   15.7927 C.ar    1  UNL1        0.0989
     16 C          66.7077   93.0697   15.2254 C.ar    1  UNL1        0.0207
     17 C          60.3023   87.6664   11.2488 C.3     1  UNL1        0.1167
     18 C          59.3948   88.2316    7.4268 C.ar    1  UNL1        0.1383
     19 C          59.9421   86.9754    6.8167 C.ar    1  UNL1        0.0369
     20 C          60.6096   85.9495    7.6840 C.ar    1  UNL1        0.0028
     21 C          60.7296   86.1798    9.1613 C.ar    1  UNL1       -0.0024
     22 C          60.1822   87.4360    9.7714 C.ar    1  UNL1        0.0005
     23 C          59.5148   88.4619    8.9041 C.ar    1  UNL1        0.0343
     24 O          58.7273   89.2575    6.5596 O.3     1  UNL1       -0.4755
     25 C          58.9102   91.3832    5.0771 C.3     1  UNL1        0.0512
     26 C          59.5569   90.2079    5.7482 C.3     1  UNL1        0.2055
@<TRIPOS>BOND
     1    25    26    1
     2    26    24    1
     3    24    18    1
     4    18    19   ar
     5    19    20   ar
     6    20    21   ar
     7    21    22   ar
     8    22    17    1
     9    17     1    1
    10     1     2   am
    11     2     3    2
    12     2     5    1
    13     5     6   ar
    14     6     7   ar
    15     7     8   ar
    16     8    11    1
    17    11    12   ar
    18    12    13   ar
    19    13    14   ar
    20    14    15   ar
    21    15    16   ar
    22     8     9   ar
    23     9    10   ar
    24    22    23   ar
    25    23    18   ar
    26    10     5   ar
    27    16    11   ar
    28     1     4    1
