@<TRIPOS>MOLECULE
*****
 19 21 0 0 0
SMALL
GASTEIGER

@<TRIPOS>ATOM
      1 O          62.1289   90.9281    9.9852 O.3     1  UNL1       -0.5055
      2 C          62.7044   90.1609   11.1385 C.ar    1  UNL1        0.1337
      3 C          63.4148   90.8868   12.2423 C.ar    1  UNL1        0.0366
      4 C          63.9902   90.1197   13.3957 C.ar    1  UNL1        0.0031
      5 C          63.8553   88.6266   13.4453 C.ar    1  UNL1        0.0010
      6 C          64.4308   87.8594   14.5987 C.ar    1  UNL1        0.0001
      7 C          64.2959   86.3664   14.6483 C.ar    1  UNL1        0.0009
      8 C          63.5855   85.6404   13.5445 C.ar    1  UNL1        0.0121
      9 C          63.0100   86.4075   12.3911 C.ar    1  UNL1        0.0578
     10 CL         62.2996   85.6816   11.2873 Cl      1  UNL1       -0.0822
     11 C          63.1449   87.9007   12.3415 C.ar    1  UNL1        0.0136
     12 C          62.5695   88.6679   11.1881 C.ar    1  UNL1        0.0375
     13 H          62.2132   91.8608    9.9542 H       1  UNL1        0.2922
     14 C          63.4506   84.1473   13.5941 C.ar    1  UNL1        0.0200
     15 C          64.2834   83.2885   12.6891 C.ar    1  UNL1        0.0032
     16 C          64.1485   81.7954   12.7387 C.ar    1  UNL1        0.0207
     17 C          63.1808   81.1611   13.6932 C.ar    1  UNL1        0.0989
     18 N          62.3480   82.0198   14.5982 N.ar    1  UNL1       -0.2423
     19 C          62.4829   83.5130   14.5486 C.ar    1  UNL1        0.0989
@<TRIPOS>BOND
     1     1     2    1
     2     2     3   ar
     3     3     4   ar
     4     4     5   ar
     5     5     6   ar
     6     6     7   ar
     7     7     8   ar
     8     8    14    1
     9    14    15   ar
    10    15    16   ar
    11    16    17   ar
    12    17    18   ar
    13    18    19   ar
    14     8     9   ar
    15     9    10    1
    16     9    11   ar
    17    11    12   ar
    18    12     2   ar
    19    11     5   ar
    20    19    14   ar
    21     1    13    1
@<TRIPOS>MOLECULE
*****
 19 21 0 0 0
SMALL
GASTEIGER

@<TRIPOS>ATOM
      1 O          60.5809   87.5040   11.5927 O.3     1  UNL1       -0.5055
      2 C          61.4950   88.6664   11.3414 C.ar    1  UNL1        0.1337
      3 C          61.3607   89.4672   10.0803 C.ar    1  UNL1        0.0366
      4 C          62.2748   90.6297    9.8290 C.ar    1  UNL1        0.0031
      5 C          63.3232   90.9913   10.8390 C.ar    1  UNL1        0.0010
      6 C          64.2373   92.1538   10.5877 C.ar    1  UNL1        0.0001
      7 C          65.2857   92.5154   11.5977 C.ar    1  UNL1        0.0009
      8 C          65.4200   91.7146   12.8589 C.ar    1  UNL1        0.0121
      9 C          64.5060   90.5521   13.1102 C.ar    1  UNL1        0.0578
     10 CL         64.6403   89.7513   14.3713 Cl      1  UNL1       -0.0822
     11 C          63.4575   90.1905   12.1001 C.ar    1  UNL1        0.0136
     12 C          62.5434   89.0281   12.3514 C.ar    1  UNL1        0.0375
     13 H          59.9260   87.2781   10.9618 H       1  UNL1        0.2922
     14 C          66.4684   92.0762   13.8689 C.ar    1  UNL1        0.0200
     15 C          66.0648   92.4998   15.2501 C.ar    1  UNL1        0.0032
     16 C          67.1132   92.8615   16.2601 C.ar    1  UNL1        0.0207
     17 C          68.5653   92.7995   15.8889 C.ar    1  UNL1        0.0989
     18 N          68.9689   92.3760   14.5077 N.ar    1  UNL1       -0.2423
     19 C          67.9205   92.0143   13.4977 C.ar    1  UNL1        0.0989
@<TRIPOS>BOND
     1     1     2    1
     2     2     3   ar
     3     3     4   ar
     4     4     5   ar
     5     5     6   ar
     6     6     7   ar
     7     7     8   ar
     8     8    14    1
     9    14    15   ar
    10    15    16   ar
    11    16    17   ar
    12    17    18   ar
    13    18    19   ar
    14     8     9   ar
    15     9    10    1
    16     9    11   ar
    17    11    12   ar
    18    12     2   ar
    19    11     5   ar
    20    19    14   ar
    21     1    13    1
@<TRIPOS>MOLECULE
*****
 19 21 0 0 0
SMALL
GASTEIGER

@<TRIPOS>ATOM
      1 O          64.0604   91.8174   13.2521 O.3     1  UNL1       -0.5055
      2 C          63.5036   90.6217   12.5378 C.ar    1  UNL1        0.1337
      3 C          62.7180   90.8024   11.2729 C.ar    1  UNL1        0.0366
      4 C          62.1611   89.6067   10.5585 C.ar    1  UNL1        0.0031
      5 C          62.3899   88.2303   11.1092 C.ar    1  UNL1        0.0010
      6 C          61.8331   87.0346   10.3948 C.ar    1  UNL1        0.0001
      7 C          62.0619   85.6583   10.9454 C.ar    1  UNL1        0.0009
      8 C          62.8476   85.4775   12.2104 C.ar    1  UNL1        0.0121
      9 C          63.4044   86.6732   12.9247 C.ar    1  UNL1        0.0578
     10 CL         64.1900   86.4925   14.1897 Cl      1  UNL1       -0.0822
     11 C          63.1756   88.0496   12.3741 C.ar    1  UNL1        0.0136
     12 C          63.7324   89.2453   13.0884 C.ar    1  UNL1        0.0375
     13 H          63.9175   92.6772   12.9082 H       1  UNL1        0.2922
     14 C          63.0764   84.1012   12.7610 C.ar    1  UNL1        0.0200
     15 C          63.9855   83.1479   12.0435 C.ar    1  UNL1        0.0032
     16 C          64.2143   81.7715   12.5941 C.ar    1  UNL1        0.0207
     17 C          63.5340   81.3483   13.8622 C.ar    1  UNL1        0.0989
     18 N          62.6249   82.3015   14.5797 N.ar    1  UNL1       -0.2423
     19 C          62.3961   83.6780   14.0291 C.ar    1  UNL1        0.0989
@<TRIPOS>BOND
     1     1     2    1
     2     2     3   ar
     3     3     4   ar
     4     4     5   ar
     5     5     6   ar
     6     6     7   ar
     7     7     8   ar
     8     8    14    1
     9    14    15   ar
    10    15    16   ar
    11    16    17   ar
    12    17    18   ar
    13    18    19   ar
    14     8     9   ar
    15     9    10    1
    16     9    11   ar
    17    11    12   ar
    18    12     2   ar
    19    11     5   ar
    20    19    14   ar
    21     1    13    1
@<TRIPOS>MOLECULE
*****
 19 21 0 0 0
SMALL
GASTEIGER

@<TRIPOS>ATOM
      1 O          66.7599   92.7296   16.5745 O.3     1  UNL1       -0.5055
      2 C          66.2871   92.6799   15.1519 C.ar    1  UNL1        0.1337
      3 C          66.8601   93.6249   14.1377 C.ar    1  UNL1        0.0366
      4 C          66.3873   93.5752   12.7150 C.ar    1  UNL1        0.0031
      5 C          65.3416   92.5805   12.3065 C.ar    1  UNL1        0.0010
      6 C          64.8688   92.5308   10.8838 C.ar    1  UNL1        0.0001
      7 C          63.8231   91.5361   10.4753 C.ar    1  UNL1        0.0009
      8 C          63.2500   90.5910   11.4895 C.ar    1  UNL1        0.0121
      9 C          63.7228   90.6407   12.9122 C.ar    1  UNL1        0.0578
     10 CL         63.1499   89.6956   13.9264 Cl      1  UNL1       -0.0822
     11 C          64.7686   91.6355   13.3207 C.ar    1  UNL1        0.0136
     12 C          65.2414   91.6852   14.7434 C.ar    1  UNL1        0.0375
     13 H          67.4132   93.3510   16.8297 H       1  UNL1        0.2922
     14 C          62.2043   89.5962   11.0811 C.ar    1  UNL1        0.0200
     15 C          62.5703   88.4464   10.1899 C.ar    1  UNL1        0.0032
     16 C          61.5246   87.4517    9.7814 C.ar    1  UNL1        0.0207
     17 C          60.1128   87.6067   10.2640 C.ar    1  UNL1        0.0989
     18 N          59.7468   88.7565   11.1551 N.ar    1  UNL1       -0.2423
     19 C          60.7925   89.7513   11.5636 C.ar    1  UNL1        0.0989
@<TRIPOS>BOND
     1     1     2    1
     2     2     3   ar
     3     3     4   ar
     4     4     5   ar
     5     5     6   ar
     6     6     7   ar
     7     7     8   ar
     8     8    14    1
     9    14    15   ar
    10    15    16   ar
    11    16    17   ar
    12    17    18   ar
    13    18    19   ar
    14     8     9   ar
    15     9    10    1
    16     9    11   ar
    17    11    12   ar
    18    12     2   ar
    19    11     5   ar
    20    19    14   ar
    21     1    13    1
@<TRIPOS>MOLECULE
*****
 19 21 0 0 0
SMALL
GASTEIGER

@<TRIPOS>ATOM
      1 O          63.6426   82.9350   15.2237 O.3     1  UNL1       -0.5055
      2 C          63.6635   83.1704   13.7424 C.ar    1  UNL1        0.1337
      3 C          64.5239   82.3163   12.8593 C.ar    1  UNL1        0.0366
      4 C          64.5448   82.5517   11.3780 C.ar    1  UNL1        0.0031
      5 C          63.7052   83.6413   10.7799 C.ar    1  UNL1        0.0010
      6 C          63.7261   83.8767    9.2986 C.ar    1  UNL1        0.0001
      7 C          62.8864   84.9663    8.7005 C.ar    1  UNL1        0.0009
      8 C          62.0259   85.8205    9.5836 C.ar    1  UNL1        0.0121
      9 C          62.0051   85.5851   11.0649 C.ar    1  UNL1        0.0578
     10 CL         61.1446   86.4392   11.9480 Cl      1  UNL1       -0.0822
     11 C          62.8447   84.4954   11.6630 C.ar    1  UNL1        0.0136
     12 C          62.8239   84.2600   13.1443 C.ar    1  UNL1        0.0375
     13 H          64.1671   82.2543   15.5973 H       1  UNL1        0.2922
     14 C          61.1863   86.9101    8.9855 C.ar    1  UNL1        0.0200
     15 C          60.1419   86.5759    7.9620 C.ar    1  UNL1        0.0032
     16 C          59.3023   87.6655    7.3638 C.ar    1  UNL1        0.0207
     17 C          59.5070   89.0893    7.7892 C.ar    1  UNL1        0.0989
     18 N          60.5514   89.4235    8.8127 N.ar    1  UNL1       -0.2423
     19 C          61.3911   88.3339    9.4109 C.ar    1  UNL1        0.0989
@<TRIPOS>BOND
     1     1     2    1
     2     2     3   ar
     3     3     4   ar
     4     4     5   ar
     5     5     6   ar
     6     6     7   ar
     7     7     8   ar
     8     8    14    1
     9    14    15   ar
    10    15    16   ar
    11    16    17   ar
    12    17    18   ar
    13    18    19   ar
    14     8     9   ar
    15     9    10    1
    16     9    11   ar
    17    11    12   ar
    18    12     2   ar
    19    11     5   ar
    20    19    14   ar
    21     1    13    1
@<TRIPOS>MOLECULE
*****
 19 21 0 0 0
SMALL
GASTEIGER

@<TRIPOS>ATOM
      1 O          62.4516   83.5799   11.8860 O.3     1  UNL1       -0.5055
      2 C          62.4816   85.0628   11.6619 C.ar    1  UNL1        0.1337
      3 C          61.8609   85.6474   10.4279 C.ar    1  UNL1        0.0366
      4 C          61.8909   87.1303   10.2038 C.ar    1  UNL1        0.0031
      5 C          62.5415   88.0285   11.2137 C.ar    1  UNL1        0.0010
      6 C          62.5715   89.5113   10.9895 C.ar    1  UNL1        0.0001
      7 C          63.2221   90.4095   11.9994 C.ar    1  UNL1        0.0009
      8 C          63.8428   89.8248   13.2336 C.ar    1  UNL1        0.0121
      9 C          63.8128   88.3419   13.4577 C.ar    1  UNL1        0.0578
     10 CL         64.4334   87.7573   14.6917 Cl      1  UNL1       -0.0822
     11 C          63.1622   87.4438   12.4477 C.ar    1  UNL1        0.0136
     12 C          63.1322   85.9609   12.6718 C.ar    1  UNL1        0.0375
     13 H          62.0452   83.0188   11.2552 H       1  UNL1        0.2922
     14 C          64.4934   90.7230   14.2435 C.ar    1  UNL1        0.0200
     15 C          65.8761   91.2503   13.9978 C.ar    1  UNL1        0.0032
     16 C          66.5267   92.1484   15.0077 C.ar    1  UNL1        0.0207
     17 C          65.7947   92.5193   16.2633 C.ar    1  UNL1        0.0989
     18 N          64.4121   91.9921   16.5090 N.ar    1  UNL1       -0.2423
     19 C          63.7614   91.0939   15.4991 C.ar    1  UNL1        0.0989
@<TRIPOS>BOND
     1     1     2    1
     2     2     3   ar
     3     3     4   ar
     4     4     5   ar
     5     5     6   ar
     6     6     7   ar
     7     7     8   ar
     8     8    14    1
     9    14    15   ar
    10    15    16   ar
    11    16    17   ar
    12    17    18   ar
    13    18    19   ar
    14     8     9   ar
    15     9    10    1
    16     9    11   ar
    17    11    12   ar
    18    12     2   ar
    19    11     5   ar
    20    19    14   ar
    21     1    13    1
@<TRIPOS>MOLECULE
*****
 19 21 0 0 0
SMALL
GASTEIGER

@<TRIPOS>ATOM
      1 O          60.4680   89.8348    8.4915 O.3     1  UNL1       -0.5055
      2 C          61.2883   89.4260    9.6789 C.ar    1  UNL1        0.1337
      3 C          61.9641   90.4692   10.5186 C.ar    1  UNL1        0.0366
      4 C          62.7844   90.0605   11.7060 C.ar    1  UNL1        0.0031
      5 C          62.9289   88.6085   12.0539 C.ar    1  UNL1        0.0010
      6 C          63.7491   88.1998   13.2413 C.ar    1  UNL1        0.0001
      7 C          63.8936   86.7479   13.5892 C.ar    1  UNL1        0.0009
      8 C          63.2177   85.7046   12.7495 C.ar    1  UNL1        0.0121
      9 C          62.3975   86.1134   11.5621 C.ar    1  UNL1        0.0578
     10 CL         61.7216   85.0702   10.7224 Cl      1  UNL1       -0.0822
     11 C          62.2530   87.5654   11.2142 C.ar    1  UNL1        0.0136
     12 C          61.4328   87.9741   10.0268 C.ar    1  UNL1        0.0375
     13 H          60.3778   90.7418    8.2742 H       1  UNL1        0.2922
     14 C          63.3622   84.2527   13.0974 C.ar    1  UNL1        0.0200
     15 C          64.2335   83.3639   12.2600 C.ar    1  UNL1        0.0032
     16 C          64.3779   81.9120   12.6079 C.ar    1  UNL1        0.0207
     17 C          63.6512   81.3488   13.7930 C.ar    1  UNL1        0.0989
     18 N          62.7799   82.2375   14.6303 N.ar    1  UNL1       -0.2423
     19 C          62.6354   83.6895   14.2825 C.ar    1  UNL1        0.0989
@<TRIPOS>BOND
     1     1     2    1
     2     2     3   ar
     3     3     4   ar
     4     4     5   ar
     5     5     6   ar
     6     6     7   ar
     7     7     8   ar
     8     8    14    1
     9    14    15   ar
    10    15    16   ar
    11    16    17   ar
    12    17    18   ar
    13    18    19   ar
    14     8     9   ar
    15     9    10    1
    16     9    11   ar
    17    11    12   ar
    18    12     2   ar
    19    11     5   ar
    20    19    14   ar
    21     1    13    1
@<TRIPOS>MOLECULE
*****
 19 21 0 0 0
SMALL
GASTEIGER

@<TRIPOS>ATOM
      1 O          64.6506   85.2593   16.1366 O.3     1  UNL1       -0.5055
      2 C          64.2168   86.1477   15.0085 C.ar    1  UNL1        0.1337
      3 C          64.3014   87.6383   15.1527 C.ar    1  UNL1        0.0366
      4 C          63.8676   88.5268   14.0246 C.ar    1  UNL1        0.0031
      5 C          63.3492   87.9246   12.7524 C.ar    1  UNL1        0.0010
      6 C          62.9155   88.8130   11.6243 C.ar    1  UNL1        0.0001
      7 C          62.3971   88.2108   10.3521 C.ar    1  UNL1        0.0009
      8 C          62.3124   86.7201   10.2079 C.ar    1  UNL1        0.0121
      9 C          62.7462   85.8317   11.3360 C.ar    1  UNL1        0.0578
     10 CL         62.6616   84.3411   11.1918 Cl      1  UNL1       -0.0822
     11 C          63.2646   86.4339   12.6082 C.ar    1  UNL1        0.0136
     12 C          63.6984   85.5455   13.7363 C.ar    1  UNL1        0.0375
     13 H          64.9744   85.6354   16.9313 H       1  UNL1        0.2922
     14 C          61.7940   86.1179    8.9357 C.ar    1  UNL1        0.0200
     15 C          62.7176   85.3464    8.0402 C.ar    1  UNL1        0.0032
     16 C          62.1992   84.7442    6.7680 C.ar    1  UNL1        0.0207
     17 C          60.7573   84.9135    6.3912 C.ar    1  UNL1        0.0989
     18 N          59.8337   85.6850    7.2865 N.ar    1  UNL1       -0.2423
     19 C          60.3520   86.2872    8.5589 C.ar    1  UNL1        0.0989
@<TRIPOS>BOND
     1     1     2    1
     2     2     3   ar
     3     3     4   ar
     4     4     5   ar
     5     5     6   ar
     6     6     7   ar
     7     7     8   ar
     8     8    14    1
     9    14    15   ar
    10    15    16   ar
    11    16    17   ar
    12    17    18   ar
    13    18    19   ar
    14     8     9   ar
    15     9    10    1
    16     9    11   ar
    17    11    12   ar
    18    12     2   ar
    19    11     5   ar
    20    19    14   ar
    21     1    13    1
@<TRIPOS>MOLECULE
*****
 19 21 0 0 0
SMALL
GASTEIGER

@<TRIPOS>ATOM
      1 O          64.7152   83.6723   15.3544 O.3     1  UNL1       -0.5055
      2 C          64.3771   84.9740   14.6901 C.ar    1  UNL1        0.1337
      3 C          64.8989   86.2619   15.2547 C.ar    1  UNL1        0.0366
      4 C          64.5608   87.5636   14.5905 C.ar    1  UNL1        0.0031
      5 C          63.7009   87.5774   13.3616 C.ar    1  UNL1        0.0010
      6 C          63.3628   88.8791   12.6973 C.ar    1  UNL1        0.0001
      7 C          62.5028   88.8929   11.4684 C.ar    1  UNL1        0.0009
      8 C          61.9810   87.6049   10.9037 C.ar    1  UNL1        0.0121
      9 C          62.3191   86.3032   11.5680 C.ar    1  UNL1        0.0578
     10 CL         61.7972   85.0153   11.0033 Cl      1  UNL1       -0.0822
     11 C          63.1791   86.2895   12.7969 C.ar    1  UNL1        0.0136
     12 C          63.5172   84.9878   13.4612 C.ar    1  UNL1        0.0375
     13 H          65.2524   83.6637   16.1220 H       1  UNL1        0.2922
     14 C          61.1210   87.6187    9.6748 C.ar    1  UNL1        0.0200
     15 C          60.8667   86.3458    8.9230 C.ar    1  UNL1        0.0032
     16 C          60.0068   86.3596    7.6941 C.ar    1  UNL1        0.0207
     17 C          59.4011   87.6462    7.2169 C.ar    1  UNL1        0.0989
     18 N          59.6553   88.9190    7.9686 N.ar    1  UNL1       -0.2423
     19 C          60.5153   88.9053    9.1976 C.ar    1  UNL1        0.0989
@<TRIPOS>BOND
     1     1     2    1
     2     2     3   ar
     3     3     4   ar
     4     4     5   ar
     5     5     6   ar
     6     6     7   ar
     7     7     8   ar
     8     8    14    1
     9    14    15   ar
    10    15    16   ar
    11    16    17   ar
    12    17    18   ar
    13    18    19   ar
    14     8     9   ar
    15     9    10    1
    16     9    11   ar
    17    11    12   ar
    18    12     2   ar
    19    11     5   ar
    20    19    14   ar
    21     1    13    1
