@<TRIPOS>MOLECULE
*****
 32 36 0 0 0
SMALL
GASTEIGER

@<TRIPOS>ATOM
      1 C          61.3555   88.4402   11.1610 C.3     1  UNL1        0.1096
      2 C          60.3575   89.0703   10.2351 C.3     1  UNL1        0.1622
      3 O          59.7835   88.2771    9.0988 O.3     1  UNL1       -0.3502
      4 C          60.2075   86.8537    8.8882 C.3     1  UNL1        0.1637
      5 C          61.2054   86.2236    9.8139 C.3     1  UNL1        0.1257
      6 N          61.7794   87.0168   10.9504 N.am    1  UNL1       -0.2723
      7 C          62.7774   86.3867   11.8761 C.2     1  UNL1        0.2506
      8 O          63.3513   87.1799   13.0125 O.2     1  UNL1       -0.2699
      9 C          63.2013   84.9634   11.6655 C.ar    1  UNL1        0.0729
     10 C          63.3735   84.4301   10.2742 C.ar    1  UNL1        0.0061
     11 C          63.7975   83.0068   10.0636 C.ar    1  UNL1        0.0002
     12 C          64.0493   82.1167   11.2444 C.ar    1  UNL1        0.0016
     13 C          63.8770   82.6499   12.6357 C.ar    1  UNL1        0.0211
     14 C          63.4531   84.0733   12.8463 C.ar    1  UNL1        0.1072
     15 N          63.2808   84.6065   14.2378 N.ar    1  UNL1       -0.1477
     16 N          62.0074   84.6067   15.0306 N.ar    1  UNL1       -0.1447
     17 C          62.2913   85.2334   16.3635 C.ar    1  UNL1        0.1446
     18 C          63.7402   85.6206   16.3944 C.ar    1  UNL1        0.1446
     19 N          64.3517   85.2331   15.0807 N.ar    1  UNL1       -0.1447
     20 C          61.9294   89.2334   12.2973 C.3     1  UNL1        0.0488
     21 C          66.1790   93.3367   11.2467 C.3     1  UNL1        0.0327
     22 C          65.1166   92.3109   11.5093 C.ar    1  UNL1       -0.0025
     23 C          64.1227   91.9695   10.4390 C.ar    1  UNL1       -0.0030
     24 C          63.0603   90.9437   10.7017 C.ar    1  UNL1       -0.0044
     25 C          62.9918   90.2592   12.0346 C.ar    1  UNL1       -0.0189
     26 C          63.9857   90.6006   13.1049 C.ar    1  UNL1        0.0164
     27 C          65.0481   91.6264   12.8423 C.ar    1  UNL1        0.0986
     28 N          66.0421   91.9678   13.9127 N.ar    1  UNL1       -0.1481
     29 N          67.4978   91.6060   13.9119 N.ar    1  UNL1       -0.1447
     30 C          68.1101   92.1455   15.1705 C.ar    1  UNL1        0.1446
     31 C          67.0328   92.8407   15.9491 C.ar    1  UNL1        0.1446
     32 N          65.7547   92.7309   15.1717 N.ar    1  UNL1       -0.1447
@<TRIPOS>BOND
     1    21    22    1
     2    22    23   ar
     3    23    24   ar
     4    24    25   ar
     5    25    20    1
     6     1    20    1
     7     1     2    1
     8     2     3    1
     9     3     4    1
    10     4     5    1
    11     5     6    1
    12     6     7   am
    13     7     8    2
    14     7     9    1
    15     9    10   ar
    16    10    11   ar
    17    11    12   ar
    18    12    13   ar
    19    13    14   ar
    20    14    15    1
    21    15    16   ar
    22    16    17   ar
    23    17    18   ar
    24    18    19   ar
    25    25    26   ar
    26    26    27   ar
    27    27    28    1
    28    28    29   ar
    29    29    30   ar
    30    30    31   ar
    31    31    32   ar
    32    27    22   ar
    33    32    28   ar
    34     6     1    1
    35    14     9   ar
    36    19    15   ar
@<TRIPOS>MOLECULE
*****
 32 36 0 0 0
SMALL
GASTEIGER

@<TRIPOS>ATOM
      1 C          61.8423   89.4312   11.7522 C.3     1  UNL1        0.1096
      2 C          61.0938   90.4791   10.9830 C.3     1  UNL1        0.1622
      3 O          60.5674   90.1708    9.6127 O.3     1  UNL1       -0.3502
      4 C          60.7895   88.8146    9.0115 C.3     1  UNL1        0.1637
      5 C          61.5380   87.7668    9.7806 C.3     1  UNL1        0.1257
      6 N          62.0645   88.0750   11.1510 N.am    1  UNL1       -0.2723
      7 C          62.8130   87.0271   11.9201 C.2     1  UNL1        0.2506
      8 O          63.3394   87.3354   13.2904 O.2     1  UNL1       -0.2699
      9 C          63.0351   85.6709   11.3189 C.ar    1  UNL1        0.0729
     10 C          63.0436   85.5036    9.8283 C.ar    1  UNL1        0.0061
     11 C          63.2657   84.1474    9.2271 C.ar    1  UNL1        0.0002
     12 C          63.4793   82.9586   10.1165 C.ar    1  UNL1        0.0016
     13 C          63.4708   83.1259   11.6071 C.ar    1  UNL1        0.0211
     14 C          63.2487   84.4821   12.2083 C.ar    1  UNL1        0.1072
     15 N          63.2402   84.6494   13.6989 N.ar    1  UNL1       -0.1477
     16 N          62.0440   84.5170   14.5942 N.ar    1  UNL1       -0.1447
     17 C          62.4909   84.7643   16.0046 C.ar    1  UNL1        0.1446
     18 C          63.9633   85.0496   15.9809 C.ar    1  UNL1        0.1446
     19 N          64.4264   84.9786   14.5560 N.ar    1  UNL1       -0.1447
     20 C          62.3687   89.7395   13.1225 C.3     1  UNL1        0.0488
     21 C          67.6251   92.5633   13.7519 C.3     1  UNL1        0.0327
     22 C          66.3110   91.8574   13.5945 C.ar    1  UNL1       -0.0025
     23 C          65.8000   90.9706   14.6911 C.ar    1  UNL1       -0.0030
     24 C          64.4859   90.2647   14.5338 C.ar    1  UNL1       -0.0044
     25 C          63.6828   90.4454   13.2798 C.ar    1  UNL1       -0.0189
     26 C          64.1939   91.3321   12.1833 C.ar    1  UNL1        0.0164
     27 C          65.5080   92.0381   12.3406 C.ar    1  UNL1        0.0986
     28 N          66.0190   92.9249   11.2439 N.ar    1  UNL1       -0.1481
     29 N          67.0213   92.5422   10.1956 N.ar    1  UNL1       -0.1447
     30 C          67.2392   93.7308    9.3069 C.ar    1  UNL1        0.1446
     31 C          66.3715   94.8480    9.8060 C.ar    1  UNL1        0.1446
     32 N          65.6174   94.3499   11.0031 N.ar    1  UNL1       -0.1447
@<TRIPOS>BOND
     1    21    22    1
     2    22    23   ar
     3    23    24   ar
     4    24    25   ar
     5    25    20    1
     6     1    20    1
     7     1     2    1
     8     2     3    1
     9     3     4    1
    10     4     5    1
    11     5     6    1
    12     6     7   am
    13     7     8    2
    14     7     9    1
    15     9    10   ar
    16    10    11   ar
    17    11    12   ar
    18    12    13   ar
    19    13    14   ar
    20    14    15    1
    21    15    16   ar
    22    16    17   ar
    23    17    18   ar
    24    18    19   ar
    25    25    26   ar
    26    26    27   ar
    27    27    28    1
    28    28    29   ar
    29    29    30   ar
    30    30    31   ar
    31    31    32   ar
    32    27    22   ar
    33    32    28   ar
    34     6     1    1
    35    14     9   ar
    36    19    15   ar
@<TRIPOS>MOLECULE
*****
 32 36 0 0 0
SMALL
GASTEIGER

@<TRIPOS>ATOM
      1 C          63.2243   88.6838   15.4350 C.3     1  UNL1        0.1096
      2 C          63.0786   89.0197   16.8897 C.3     1  UNL1        0.1622
      3 O          63.0630   87.9245   17.9145 O.3     1  UNL1       -0.3502
      4 C          63.1931   86.4933   17.4846 C.3     1  UNL1        0.1637
      5 C          63.3388   86.1573   16.0301 C.3     1  UNL1        0.1257
      6 N          63.3544   87.2526   15.0052 N.am    1  UNL1       -0.2723
      7 C          63.5001   86.9166   13.5506 C.2     1  UNL1        0.2506
      8 O          63.5156   88.0119   12.5259 O.2     1  UNL1       -0.2699
      9 C          63.6301   85.4854   13.1208 C.ar    1  UNL1        0.0729
     10 C          64.4618   84.5327   13.9274 C.ar    1  UNL1        0.0061
     11 C          64.5919   83.1015   13.4976 C.ar    1  UNL1        0.0002
     12 C          63.8903   82.6230   12.2611 C.ar    1  UNL1        0.0016
     13 C          63.0587   83.5757   11.4546 C.ar    1  UNL1        0.0211
     14 C          62.9286   85.0069   11.8844 C.ar    1  UNL1        0.1072
     15 N          62.0968   85.9596   11.0777 N.ar    1  UNL1       -0.1477
     16 N          60.8820   86.6956   11.5600 N.ar    1  UNL1       -0.1447
     17 C          60.3683   87.5344   10.4276 C.ar    1  UNL1        0.1446
     18 C          61.2657   87.3169    9.2454 C.ar    1  UNL1        0.1446
     19 N          62.3340   86.3437    9.6472 N.ar    1  UNL1       -0.1447
     20 C          63.2399   89.7790   14.4103 C.3     1  UNL1        0.0488
     21 C          67.4835   94.0159   14.6118 C.3     1  UNL1        0.0327
     22 C          66.4226   92.9567   14.5614 C.ar    1  UNL1       -0.0025
     23 C          65.8895   92.3680   15.8339 C.ar    1  UNL1       -0.0030
     24 C          64.8286   91.3087   15.7835 C.ar    1  UNL1       -0.0044
     25 C          64.3008   90.8382   14.4607 C.ar    1  UNL1       -0.0189
     26 C          64.8339   91.4269   13.1882 C.ar    1  UNL1        0.0164
     27 C          65.8948   92.4861   13.2386 C.ar    1  UNL1        0.0986
     28 N          66.4278   93.0748   11.9660 N.ar    1  UNL1       -0.1481
     29 N          65.9600   94.3441   11.3179 N.ar    1  UNL1       -0.1447
     30 C          66.7653   94.5513   10.0695 C.ar    1  UNL1        0.1446
     31 C          67.7310   93.4101    9.9461 C.ar    1  UNL1        0.1446
     32 N          67.5224   92.4976   11.1182 N.ar    1  UNL1       -0.1447
@<TRIPOS>BOND
     1    21    22    1
     2    22    23   ar
     3    23    24   ar
     4    24    25   ar
     5    25    20    1
     6     1    20    1
     7     1     2    1
     8     2     3    1
     9     3     4    1
    10     4     5    1
    11     5     6    1
    12     6     7   am
    13     7     8    2
    14     7     9    1
    15     9    10   ar
    16    10    11   ar
    17    11    12   ar
    18    12    13   ar
    19    13    14   ar
    20    14    15    1
    21    15    16   ar
    22    16    17   ar
    23    17    18   ar
    24    18    19   ar
    25    25    26   ar
    26    26    27   ar
    27    27    28    1
    28    28    29   ar
    29    29    30   ar
    30    30    31   ar
    31    31    32   ar
    32    27    22   ar
    33    32    28   ar
    34     6     1    1
    35    14     9   ar
    36    19    15   ar
