@<TRIPOS>MOLECULE
*****
 37 42 0 0 0
SMALL
GASTEIGER

@<TRIPOS>ATOM
      1 C          64.6474   90.0059   14.4801 C.ar    1  UNL1        0.1515
      2 N          65.5979   91.0075   15.0661 N.ar    1  UNL1       -0.2248
      3 C          65.8460   92.0691   14.0358 C.ar    1  UNL1        0.1173
      4 C          66.6947   93.3057   14.0531 C.ar    1  UNL1        0.0238
      5 C          66.7464   94.1967   12.8476 C.ar    1  UNL1        0.0208
      6 C          65.9493   93.8512   11.6248 C.ar    1  UNL1        0.0845
      7 N          65.1005   92.6146   11.6075 N.ar    1  UNL1       -0.2263
      8 C          65.0489   91.7235   12.8130 C.ar    1  UNL1        0.1665
      9 N          64.3081   90.4484   13.0876 N.ar    1  UNL1       -0.2754
     10 N          62.7820   90.2677   16.8150 N.pl3   1  UNL1       -0.3425
     11 C          63.1949   88.9083   16.3335 C.ar    1  UNL1        0.1282
     12 N          62.6750   87.6798   17.0196 N.ar    1  UNL1       -0.2295
     13 C          63.0878   86.3205   16.5382 C.ar    1  UNL1        0.1003
     14 C          64.0205   86.1896   15.3708 C.ar    1  UNL1        0.0209
     15 C          64.5404   87.4181   14.6847 C.ar    1  UNL1        0.0074
     16 C          64.1275   88.7774   15.1661 C.ar    1  UNL1        0.0657
     17 H          62.1698   90.3536   17.5812 H       1  UNL1        0.1437
     18 H          63.1232   91.0740   16.3647 H       1  UNL1        0.1437
     19 C          66.0010   94.7424   10.4192 C.ar    1  UNL1        0.0369
     20 C          66.9195   94.4112    9.2806 C.ar    1  UNL1        0.0046
     21 C          66.9712   95.3024    8.0751 C.ar    1  UNL1        0.0207
     22 C          66.1043   96.5246    8.0082 C.ar    1  UNL1        0.0989
     23 N          65.1857   96.8558    9.1469 N.ar    1  UNL1       -0.2423
     24 C          65.1340   95.9646   10.3524 C.ar    1  UNL1        0.1003
     25 C          63.3894   89.7402   12.1366 C.ar    1  UNL1        0.0667
     26 C          62.6389   90.5198   11.0980 C.ar    1  UNL1        0.0173
     27 C          61.7202   89.8116   10.1470 C.ar    1  UNL1       -0.0015
     28 C          61.5519   88.3236   10.2347 C.ar    1  UNL1       -0.0097
     29 C          62.3024   87.5439   11.2734 C.ar    1  UNL1       -0.0015
     30 C          63.2211   88.2522   12.2243 C.ar    1  UNL1        0.0173
     31 C          60.6332   87.6154    9.2837 C.3     1  UNL1        0.0581
     32 N          61.0023   86.3014    9.9059 N.3     1  UNL1       -0.3200
     33 C          60.2640   88.9295    8.6617 C.3     1  UNL1        0.0185
     34 C          59.3453   88.2212    7.7107 C.3     1  UNL1        0.0033
     35 C          59.7145   86.9071    8.3329 C.3     1  UNL1        0.0185
     36 H          61.6750   86.4576   10.6565 H       1  UNL1        0.1191
     37 H          61.4171   85.6948    9.1984 H       1  UNL1        0.1191
@<TRIPOS>BOND
     1    10    11    1
     2    11    12   ar
     3    12    13   ar
     4    13    14   ar
     5    14    15   ar
     6    15    16   ar
     7    16     1    1
     8     1     2   ar
     9     2     3   ar
    10     3     4   ar
    11     4     5   ar
    12     5     6   ar
    13     6    19    1
    14    19    20   ar
    15    20    21   ar
    16    21    22   ar
    17    22    23   ar
    18    23    24   ar
    19     6     7   ar
    20     7     8   ar
    21     8     9   ar
    22     9    25    1
    23    25    26   ar
    24    26    27   ar
    25    27    28   ar
    26    28    31    1
    27    31    32    1
    28    31    33    1
    29    33    34    1
    30    34    35    1
    31    28    29   ar
    32    29    30   ar
    33    16    11   ar
    34     9     1   ar
    35    30    25   ar
    36     8     3   ar
    37    35    31    1
    38    24    19   ar
    39    10    17    1
    40    10    18    1
    41    32    36    1
    42    32    37    1
