@<TRIPOS>MOLECULE
*****
 44 48 0 0 0
SMALL
GASTEIGER

@<TRIPOS>ATOM
      1 C          56.5951   91.8669    4.6721 C.3     1  UNL1        0.0312
      2 C          58.0037   91.4335    4.9510 C.2     1  UNL1        0.0136
      3 C          58.2899   90.5014    6.0909 C.2     1  UNL1        0.0107
      4 C          59.6984   90.0679    6.3698 C.2     1  UNL1        0.0510
      5 C          60.8211   90.5665    5.5089 C.2     1  UNL1        0.0613
      6 C          60.5350   91.4986    4.3690 C.2     1  UNL1        0.2246
      7 N          61.4296   92.1503    3.3566 N.2     1  UNL1       -0.0378
      8 C          60.5738   92.9865    2.4519 C.2     1  UNL1        0.3605
      9 N          59.1503   92.8517    2.9052 N.2     1  UNL1       -0.0547
     10 C          59.1263   91.9321    4.0901 C.3     1  UNL1        0.2976
     11 C          61.0567   93.8125    1.2968 C.3     1  UNL1        0.2246
     12 C          60.0950   94.2449    0.2300 C.2     1  UNL1        0.0436
     13 C          60.5780   95.0710   -0.9252 C.2     1  UNL1        0.0288
     14 C          62.0227   95.4646   -1.0136 C.2     1  UNL1        0.0896
     15 N          62.9845   95.0323    0.0532 N.am    1  UNL1       -0.1770
     16 C          62.5014   94.2062    1.2084 C.2     1  UNL1        0.2627
     17 O          63.4632   93.7738    2.2751 O.2     1  UNL1       -0.2719
     18 N          58.6503   93.8513    0.3183 N.pl3   1  UNL1       -0.3329
     19 H          58.2894   93.4887    1.1595 H       1  UNL1        0.1466
     20 C          57.7553   94.0102   -0.8749 C.3     1  UNL1        0.1211
     21 C          57.2328   92.7979   -1.5872 C.3     1  UNL1        0.1522
     22 O          57.0532   91.5090   -0.8412 O.3     1  UNL1       -0.3783
     23 H          57.3191   91.6309    0.0836 H       1  UNL1        0.2109
     24 C          56.8899   92.8746   -3.0454 C.ar    1  UNL1        0.0067
     25 C          57.3752   91.8126   -3.9869 C.ar    1  UNL1       -0.0018
     26 C          57.0323   91.8893   -5.4452 C.ar    1  UNL1        0.0006
     27 C          56.2040   93.0280   -5.9620 C.ar    1  UNL1        0.0114
     28 C          55.7186   94.0900   -5.0205 C.ar    1  UNL1        0.0574
     29 CL         54.8903   95.2288   -5.5373 Cl      1  UNL1       -0.0823
     30 C          56.0615   94.0134   -3.5623 C.ar    1  UNL1        0.0095
     31 N          59.9845   89.1357    7.5098 N.pl3   1  UNL1       -0.3046
     32 C          59.6081   87.6874    7.4068 C.3     1  UNL1        0.1081
     33 C          59.8942   86.7553    8.5467 C.3     1  UNL1        0.0942
     34 N          60.5567   87.2715    9.7895 N.3     1  UNL1       -0.2620
     35 C          60.9331   88.7199    9.8924 C.3     1  UNL1        0.0942
     36 C          60.6470   89.6520    8.7526 C.3     1  UNL1        0.1081
     37 C          60.8428   86.3395   10.9294 C.3     1  UNL1        0.1585
     38 C          62.0496   85.4496   10.8858 C.2     1  UNL1        0.2389
     39 O          62.8300   85.3062    9.6129 O.2     1  UNL1       -0.2736
     40 N          62.4758   84.7031   12.1150 N.am    1  UNL1       -0.3006
     41 H          61.9636   84.7972   12.9505 H       1  UNL1        0.1496
     42 C          63.6826   83.8132   12.0713 C.3     1  UNL1        0.1278
     43 C          63.5854   82.4474   11.4588 C.3     1  UNL1        0.2143
     44 F          62.4928   81.5113   11.8829 F       1  UNL1       -0.2324
@<TRIPOS>BOND
     1     1     2    1
     2     2     3    2
     3     3     4    1
     4     4    31    1
     5    31    32    1
     6    32    33    1
     7    33    34    1
     8    34    37    1
     9    37    38    1
    10    38    39    2
    11    38    40   am
    12    40    42    1
    13    42    43    1
    14    43    44    1
    15    34    35    1
    16    35    36    1
    17     4     5    2
    18     5     6    1
    19     6     7    2
    20     7     8    1
    21     8    11    1
    22    11    12    1
    23    12    18    1
    24    18    20    1
    25    20    21    1
    26    21    22    1
    27    21    24    1
    28    24    25   ar
    29    25    26   ar
    30    26    27   ar
    31    27    28   ar
    32    28    29    1
    33    28    30   ar
    34    12    13    2
    35    13    14    1
    36    14    15    2
    37    15    16    1
    38    16    17    2
    39     8     9    2
    40     9    10    1
    41    10     2    1
    42    36    31    1
    43    10     6    1
    44    16    11    1
    45    30    24   ar
    46    40    41    1
    47    18    19    1
    48    22    23    1
@<TRIPOS>MOLECULE
*****
 44 48 0 0 0
SMALL
GASTEIGER

@<TRIPOS>ATOM
      1 C          63.1468   89.9412   17.1995 C.3     1  UNL1        0.0312
      2 C          63.5596   89.1812   15.9739 C.2     1  UNL1        0.0136
      3 C          63.4084   87.6895   15.9300 C.2     1  UNL1        0.0107
      4 C          63.8211   86.9296   14.7045 C.2     1  UNL1        0.0510
      5 C          64.3850   87.6613   13.5227 C.2     1  UNL1        0.0613
      6 C          64.5362   89.1530   13.5666 C.2     1  UNL1        0.2246
      7 N          65.0565   90.1390   12.5630 N.2     1  UNL1       -0.0378
      8 C          64.9653   91.5083   13.1684 C.2     1  UNL1        0.3605
      9 N          64.3887   91.3687   14.5461 N.2     1  UNL1       -0.0547
     10 C          64.1235   89.9129   14.7922 C.3     1  UNL1        0.2976
     11 C          65.3782   92.7921   12.5115 C.3     1  UNL1        0.2246
     12 C          65.1776   92.9782   11.0366 C.2     1  UNL1        0.0436
     13 C          65.5906   94.2620   10.3798 C.2     1  UNL1        0.0288
     14 C          66.2040   95.3596   11.1976 C.2     1  UNL1        0.0896
     15 N          66.4046   95.1734   12.6725 N.am    1  UNL1       -0.1770
     16 C          65.9916   93.8897   13.3293 C.2     1  UNL1        0.2627
     17 O          66.1922   93.7035   14.8042 O.2     1  UNL1       -0.2719
     18 N          64.5642   91.8807   10.2187 N.pl3   1  UNL1       -0.3329
     19 H          65.1393   91.2080    9.7873 H       1  UNL1        0.1466
     20 C          63.0746   91.8079   10.0580 C.3     1  UNL1        0.1211
     21 C          62.2916   90.7593   10.7910 C.3     1  UNL1        0.1522
     22 O          62.0590   90.8918   12.2669 O.3     1  UNL1       -0.3783
     23 H          62.4783   91.7053   12.5886 H       1  UNL1        0.2109
     24 C          61.7411   89.5782   10.0481 C.ar    1  UNL1        0.0067
     25 C          60.4888   89.7208    9.2349 C.ar    1  UNL1       -0.0018
     26 C          59.9383   88.5397    8.4920 C.ar    1  UNL1        0.0006
     27 C          60.6402   87.2159    8.5622 C.ar    1  UNL1        0.0114
     28 C          61.8925   87.0733    9.3755 C.ar    1  UNL1        0.0574
     29 CL         62.5943   85.7494    9.4458 Cl      1  UNL1       -0.0823
     30 C          62.4429   88.2544   10.1184 C.ar    1  UNL1        0.0095
     31 N          63.6698   85.4378   14.6606 N.pl3   1  UNL1       -0.3046
     32 C          64.3302   84.6488   13.5692 C.3     1  UNL1        0.1081
     33 C          64.1790   83.1571   13.5253 C.3     1  UNL1        0.0942
     34 N          63.3674   82.4544   14.5729 N.3     1  UNL1       -0.2620
     35 C          62.7070   83.2434   15.6644 C.3     1  UNL1        0.0942
     36 C          62.8582   84.7351   15.7083 C.3     1  UNL1        0.1081
     37 C          63.2161   80.9627   14.5291 C.3     1  UNL1        0.1585
     38 C          61.9468   80.3524   14.0131 C.2     1  UNL1        0.2389
     39 O          62.0043   79.2175   13.0340 O.2     1  UNL1       -0.2736
     40 N          60.6199   80.8769   14.4761 N.am    1  UNL1       -0.3006
     41 H          60.5822   81.6218   15.1187 H       1  UNL1        0.1496
     42 C          59.3506   80.2666   13.9600 C.3     1  UNL1        0.1278
     43 C          58.5924   79.2861   14.8048 C.3     1  UNL1        0.2143
     44 F          58.6012   77.8282   14.4522 F       1  UNL1       -0.2324
@<TRIPOS>BOND
     1     1     2    1
     2     2     3    2
     3     3     4    1
     4     4    31    1
     5    31    32    1
     6    32    33    1
     7    33    34    1
     8    34    37    1
     9    37    38    1
    10    38    39    2
    11    38    40   am
    12    40    42    1
    13    42    43    1
    14    43    44    1
    15    34    35    1
    16    35    36    1
    17     4     5    2
    18     5     6    1
    19     6     7    2
    20     7     8    1
    21     8    11    1
    22    11    12    1
    23    12    18    1
    24    18    20    1
    25    20    21    1
    26    21    22    1
    27    21    24    1
    28    24    25   ar
    29    25    26   ar
    30    26    27   ar
    31    27    28   ar
    32    28    29    1
    33    28    30   ar
    34    12    13    2
    35    13    14    1
    36    14    15    2
    37    15    16    1
    38    16    17    2
    39     8     9    2
    40     9    10    1
    41    10     2    1
    42    36    31    1
    43    10     6    1
    44    16    11    1
    45    30    24   ar
    46    40    41    1
    47    18    19    1
    48    22    23    1
@<TRIPOS>MOLECULE
*****
 44 48 0 0 0
SMALL
GASTEIGER

@<TRIPOS>ATOM
      1 C          63.1450   90.0587   17.2281 C.3     1  UNL1        0.0312
      2 C          63.5156   89.2596   16.0140 C.2     1  UNL1        0.0136
      3 C          63.3321   87.7709   16.0112 C.2     1  UNL1        0.0107
      4 C          63.7028   86.9718   14.7972 C.2     1  UNL1        0.0510
      5 C          64.2569   87.6614   13.5858 C.2     1  UNL1        0.0613
      6 C          64.4404   89.1501   13.5885 C.2     1  UNL1        0.2246
      7 N          64.9599   90.0993   12.5497 N.2     1  UNL1       -0.0378
      8 C          64.9103   91.4850   13.1218 C.2     1  UNL1        0.3605
      9 N          64.3602   91.3923   14.5142 N.2     1  UNL1       -0.0547
     10 C          64.0697   89.9492   14.8026 C.3     1  UNL1        0.2976
     11 C          65.3362   92.7427   12.4240 C.3     1  UNL1        0.2246
     12 C          65.1128   92.8942   10.9485 C.2     1  UNL1        0.0436
     13 C          65.5387   94.1520   10.2508 C.2     1  UNL1        0.0288
     14 C          66.1879   95.2581   11.0285 C.2     1  UNL1        0.0896
     15 N          66.4113   95.1066   12.5040 N.am    1  UNL1       -0.1770
     16 C          65.9854   93.8488   13.2017 C.2     1  UNL1        0.2627
     17 O          66.2088   93.6973   14.6772 O.2     1  UNL1       -0.2719
     18 N          64.4636   91.7881   10.1707 N.pl3   1  UNL1       -0.3329
     19 H          65.0189   91.1116    9.7200 H       1  UNL1        0.1466
     20 C          62.9683   91.7127   10.0796 C.3     1  UNL1        0.1211
     21 C          62.2245   90.6440   10.8245 C.3     1  UNL1        0.1522
     22 O          61.9321   90.8135   12.2859 O.3     1  UNL1       -0.3783
     23 H          62.2897   91.6620   12.5910 H       1  UNL1        0.2109
     24 C          61.7732   89.4060   10.1079 C.ar    1  UNL1        0.0067
     25 C          62.4750   88.1023   10.3482 C.ar    1  UNL1       -0.0018
     26 C          62.0237   86.8643    9.6316 C.ar    1  UNL1        0.0006
     27 C          60.8704   86.9298    8.6747 C.ar    1  UNL1        0.0114
     28 C          60.1686   88.2335    8.4344 C.ar    1  UNL1        0.0574
     29 CL         59.0153   88.2991    7.4775 Cl      1  UNL1       -0.0823
     30 C          60.6199   89.4716    9.1510 C.ar    1  UNL1        0.0095
     31 N          63.5193   85.4830   14.7944 N.pl3   1  UNL1       -0.3046
     32 C          64.3595   84.6254   13.8952 C.3     1  UNL1        0.1081
     33 C          64.1761   83.1367   13.8925 C.3     1  UNL1        0.0942
     34 N          63.1524   82.5056   14.7889 N.3     1  UNL1       -0.2620
     35 C          62.3121   83.3631   15.6881 C.3     1  UNL1        0.0942
     36 C          62.4956   84.8518   15.6909 C.3     1  UNL1        0.1081
     37 C          62.9688   81.0169   14.7862 C.3     1  UNL1        0.1585
     38 C          62.3148   80.3439   13.6160 C.2     1  UNL1        0.2389
     39 O          60.8604   79.9817   13.6758 O.2     1  UNL1       -0.2736
     40 N          63.1151   80.0331   12.3860 N.am    1  UNL1       -0.3006
     41 H          64.0696   80.2709   12.3467 H       1  UNL1        0.1496
     42 C          62.4610   79.3602   11.2158 C.3     1  UNL1        0.1278
     43 C          62.8216   79.7684    9.8182 C.3     1  UNL1        0.2143
     44 F          63.5366   78.8061    8.9167 F       1  UNL1       -0.2324
@<TRIPOS>BOND
     1     1     2    1
     2     2     3    2
     3     3     4    1
     4     4    31    1
     5    31    32    1
     6    32    33    1
     7    33    34    1
     8    34    37    1
     9    37    38    1
    10    38    39    2
    11    38    40   am
    12    40    42    1
    13    42    43    1
    14    43    44    1
    15    34    35    1
    16    35    36    1
    17     4     5    2
    18     5     6    1
    19     6     7    2
    20     7     8    1
    21     8    11    1
    22    11    12    1
    23    12    18    1
    24    18    20    1
    25    20    21    1
    26    21    22    1
    27    21    24    1
    28    24    25   ar
    29    25    26   ar
    30    26    27   ar
    31    27    28   ar
    32    28    29    1
    33    28    30   ar
    34    12    13    2
    35    13    14    1
    36    14    15    2
    37    15    16    1
    38    16    17    2
    39     8     9    2
    40     9    10    1
    41    10     2    1
    42    36    31    1
    43    10     6    1
    44    16    11    1
    45    30    24   ar
    46    40    41    1
    47    18    19    1
    48    22    23    1
@<TRIPOS>MOLECULE
*****
 44 48 0 0 0
SMALL
GASTEIGER

@<TRIPOS>ATOM
      1 C          58.7141   86.7020    8.4207 C.3     1  UNL1        0.0312
      2 C          59.5551   87.9242    8.1998 C.2     1  UNL1        0.0136
      3 C          59.3375   88.7745    6.9834 C.2     1  UNL1        0.0107
      4 C          60.1784   89.9967    6.7624 C.2     1  UNL1        0.0510
      5 C          61.2372   90.3687    7.7578 C.2     1  UNL1        0.0613
      6 C          61.4548   89.5184    8.9742 C.2     1  UNL1        0.2246
      7 N          62.4155   89.6335   10.1204 N.2     1  UNL1       -0.0378
      8 C          62.1683   88.4824   11.0498 C.2     1  UNL1        0.3605
      9 N          61.0547   87.6559   10.4780 N.2     1  UNL1       -0.0547
     10 C          60.6138   88.2962    9.1952 C.3     1  UNL1        0.2976
     11 C          62.9052   88.2062   12.3268 C.3     1  UNL1        0.2246
     12 C          63.4347   89.3440   13.1483 C.2     1  UNL1        0.0436
     13 C          64.1716   89.0678   14.4253 C.2     1  UNL1        0.0288
     14 C          64.3789   87.6537   14.8808 C.2     1  UNL1        0.0896
     15 N          63.8494   86.5159   14.0593 N.am    1  UNL1       -0.1770
     16 C          63.1125   86.7922   12.7823 C.2     1  UNL1        0.2627
     17 O          62.5829   85.6543   11.9608 O.2     1  UNL1       -0.2719
     18 N          63.2274   90.7581   12.6928 N.pl3   1  UNL1       -0.3329
     19 H          62.4515   91.2706   13.0161 H       1  UNL1        0.1466
     20 C          64.2023   91.3913   11.7449 C.3     1  UNL1        0.1211
     21 C          65.2103   92.3785   12.2542 C.3     1  UNL1        0.1522
     22 O          65.3293   92.6367   13.7270 O.3     1  UNL1       -0.3783
     23 H          64.6872   92.0883   14.2044 H       1  UNL1        0.2109
     24 C          66.0993   93.1074   11.2907 C.ar    1  UNL1        0.0067
     25 C          66.0232   94.6015   11.1832 C.ar    1  UNL1       -0.0018
     26 C          66.9122   95.3305   10.2197 C.ar    1  UNL1        0.0006
     27 C          67.8774   94.5652    9.3637 C.ar    1  UNL1        0.0114
     28 C          67.9536   93.0710    9.4713 C.ar    1  UNL1        0.0574
     29 CL         68.9188   92.3058    8.6153 Cl      1  UNL1       -0.0823
     30 C          67.0645   92.3421   10.4347 C.ar    1  UNL1        0.0095
     31 N          59.9607   90.8470    5.5459 N.pl3   1  UNL1       -0.3046
     32 C          58.5769   91.2998    5.1852 C.3     1  UNL1        0.1081
     33 C          58.3593   92.1501    3.9688 C.3     1  UNL1        0.0942
     34 N          59.5254   92.5476    3.1132 N.3     1  UNL1       -0.2620
     35 C          60.9092   92.0949    3.4739 C.3     1  UNL1        0.0942
     36 C          61.1269   91.2446    4.6903 C.3     1  UNL1        0.1081
     37 C          59.3078   93.3979    1.8968 C.3     1  UNL1        0.1585
     38 C          59.1285   92.7540    0.5539 C.2     1  UNL1        0.2389
     39 O          60.2178   91.8957   -0.0177 O.2     1  UNL1       -0.2736
     40 N          57.8600   92.9684   -0.2174 N.am    1  UNL1       -0.3006
     41 H          57.1450   93.5317    0.1578 H       1  UNL1        0.1496
     42 C          57.6807   92.3244   -1.5602 C.3     1  UNL1        0.1278
     43 C          56.3017   92.0438   -2.0793 C.3     1  UNL1        0.2143
     44 F          55.5101   93.1367   -2.7342 F       1  UNL1       -0.2324
@<TRIPOS>BOND
     1     1     2    1
     2     2     3    2
     3     3     4    1
     4     4    31    1
     5    31    32    1
     6    32    33    1
     7    33    34    1
     8    34    37    1
     9    37    38    1
    10    38    39    2
    11    38    40   am
    12    40    42    1
    13    42    43    1
    14    43    44    1
    15    34    35    1
    16    35    36    1
    17     4     5    2
    18     5     6    1
    19     6     7    2
    20     7     8    1
    21     8    11    1
    22    11    12    1
    23    12    18    1
    24    18    20    1
    25    20    21    1
    26    21    22    1
    27    21    24    1
    28    24    25   ar
    29    25    26   ar
    30    26    27   ar
    31    27    28   ar
    32    28    29    1
    33    28    30   ar
    34    12    13    2
    35    13    14    1
    36    14    15    2
    37    15    16    1
    38    16    17    2
    39     8     9    2
    40     9    10    1
    41    10     2    1
    42    36    31    1
    43    10     6    1
    44    16    11    1
    45    30    24   ar
    46    40    41    1
    47    18    19    1
    48    22    23    1
@<TRIPOS>MOLECULE
*****
 44 48 0 0 0
SMALL
GASTEIGER

@<TRIPOS>ATOM
      1 C          58.7416   86.6597    8.5198 C.3     1  UNL1        0.0312
      2 C          59.5686   87.8882    8.2814 C.2     1  UNL1        0.0136
      3 C          59.3338   88.7247    7.0586 C.2     1  UNL1        0.0107
      4 C          60.1607   89.9531    6.8201 C.2     1  UNL1        0.0510
      5 C          61.2225   90.3453    7.8044 C.2     1  UNL1        0.0613
      6 C          61.4574   89.5088    9.0271 C.2     1  UNL1        0.2246
      7 N          62.4249   89.6445   10.1653 N.2     1  UNL1       -0.0378
      8 C          62.1959   88.4998   11.1072 C.2     1  UNL1        0.3605
      9 N          61.0868   87.6567   10.5512 N.2     1  UNL1       -0.0547
     10 C          60.6304   88.2803    9.2656 C.3     1  UNL1        0.2976
     11 C          62.9445   88.2432   12.3815 C.3     1  UNL1        0.2246
     12 C          63.4514   89.3946   13.1984 C.2     1  UNL1        0.0436
     13 C          64.2000   89.1380   14.4727 C.2     1  UNL1        0.0288
     14 C          64.4417   87.7300   14.9301 C.2     1  UNL1        0.0896
     15 N          63.9349   86.5786   14.1132 N.am    1  UNL1       -0.1770
     16 C          63.1862   86.8353   12.8389 C.2     1  UNL1        0.2627
     17 O          62.6794   85.6839   12.0220 O.2     1  UNL1       -0.2719
     18 N          63.2097   90.8026   12.7411 N.pl3   1  UNL1       -0.3329
     19 H          62.4292   91.3013   13.0747 H       1  UNL1        0.1466
     20 C          64.1572   91.4508   11.7757 C.3     1  UNL1        0.1211
     21 C          65.2106   92.3935   12.2772 C.3     1  UNL1        0.1522
     22 O          65.3790   92.6145   13.7513 O.3     1  UNL1       -0.3783
     23 H          64.7330   92.0762   14.2348 H       1  UNL1        0.2109
     24 C          66.0956   93.1154   11.3047 C.ar    1  UNL1        0.0067
     25 C          66.0193   94.6087   11.1868 C.ar    1  UNL1       -0.0018
     26 C          66.9042   95.3305   10.2143 C.ar    1  UNL1        0.0006
     27 C          67.8656   94.5590    9.3596 C.ar    1  UNL1        0.0114
     28 C          67.9419   93.0656    9.4775 C.ar    1  UNL1        0.0574
     29 CL         68.9032   92.2940    8.6228 Cl      1  UNL1       -0.0823
     30 C          67.0569   92.3438   10.4500 C.ar    1  UNL1        0.0095
     31 N          59.9258   90.7896    5.5972 N.pl3   1  UNL1       -0.3046
     32 C          58.5340   91.2178    5.2374 C.3     1  UNL1        0.1081
     33 C          58.2991   92.0542    4.0146 C.3     1  UNL1        0.0942
     34 N          59.4561   92.4625    3.1516 N.3     1  UNL1       -0.2620
     35 C          60.8480   92.0343    3.5115 C.3     1  UNL1        0.0942
     36 C          61.0828   91.1979    4.7343 C.3     1  UNL1        0.1081
     37 C          59.2214   93.2989    1.9289 C.3     1  UNL1        0.1585
     38 C          60.1199   93.1531    0.7366 C.2     1  UNL1        0.2389
     39 O          60.0528   91.9141   -0.1061 O.2     1  UNL1       -0.2736
     40 N          61.0856   94.2464    0.3871 N.am    1  UNL1       -0.3006
     41 H          61.1297   95.0597    0.9402 H       1  UNL1        0.1496
     42 C          61.9841   94.1006   -0.8051 C.3     1  UNL1        0.1278
     43 C          63.4312   93.7542   -0.6157 C.3     1  UNL1        0.2143
     44 F          63.9579   93.4580    0.7572 F       1  UNL1       -0.2324
@<TRIPOS>BOND
     1     1     2    1
     2     2     3    2
     3     3     4    1
     4     4    31    1
     5    31    32    1
     6    32    33    1
     7    33    34    1
     8    34    37    1
     9    37    38    1
    10    38    39    2
    11    38    40   am
    12    40    42    1
    13    42    43    1
    14    43    44    1
    15    34    35    1
    16    35    36    1
    17     4     5    2
    18     5     6    1
    19     6     7    2
    20     7     8    1
    21     8    11    1
    22    11    12    1
    23    12    18    1
    24    18    20    1
    25    20    21    1
    26    21    22    1
    27    21    24    1
    28    24    25   ar
    29    25    26   ar
    30    26    27   ar
    31    27    28   ar
    32    28    29    1
    33    28    30   ar
    34    12    13    2
    35    13    14    1
    36    14    15    2
    37    15    16    1
    38    16    17    2
    39     8     9    2
    40     9    10    1
    41    10     2    1
    42    36    31    1
    43    10     6    1
    44    16    11    1
    45    30    24   ar
    46    40    41    1
    47    18    19    1
    48    22    23    1
@<TRIPOS>MOLECULE
*****
 44 48 0 0 0
SMALL
GASTEIGER

@<TRIPOS>ATOM
      1 C          58.3246   86.1386    8.2535 C.3     1  UNL1        0.0312
      2 C          59.2710   87.2976    8.1490 C.2     1  UNL1        0.0136
      3 C          59.0966   88.3123    7.0582 C.2     1  UNL1        0.0107
      4 C          60.0429   89.4713    6.9537 C.2     1  UNL1        0.0510
      5 C          61.1638   89.6158    7.9401 C.2     1  UNL1        0.0613
      6 C          61.3382   88.6011    9.0309 C.2     1  UNL1        0.2246
      7 N          62.3419   88.4814   10.1392 N.2     1  UNL1       -0.0378
      8 C          62.0158   87.2483   10.9286 C.2     1  UNL1        0.3605
      9 N          60.8106   86.6060   10.3083 N.2     1  UNL1       -0.0547
     10 C          60.3918   87.4420    9.1354 C.3     1  UNL1        0.2976
     11 C          62.7636   86.7459   12.1279 C.3     1  UNL1        0.2246
     12 C          63.4295   87.7166   13.0576 C.2     1  UNL1        0.0436
     13 C          64.1773   87.2140   14.2569 C.2     1  UNL1        0.0288
     14 C          64.2592   85.7408   14.5265 C.2     1  UNL1        0.0896
     15 N          63.5934   84.7700   13.5969 N.am    1  UNL1       -0.1770
     16 C          62.8456   85.2726   12.3976 C.2     1  UNL1        0.2627
     17 O          62.1797   84.3018   11.4680 O.2     1  UNL1       -0.2719
     18 N          63.3475   89.1899   12.7880 N.pl3   1  UNL1       -0.3329
     19 H          63.5859   89.5418   11.9000 H       1  UNL1        0.1466
     20 C          62.9024   90.1270   13.8713 C.3     1  UNL1        0.1211
     21 C          63.9082   90.9828   14.5827 C.3     1  UNL1        0.1522
     22 O          63.7003   91.3438   16.0237 O.3     1  UNL1       -0.3783
     23 H          62.8743   90.9462   16.3408 H       1  UNL1        0.2109
     24 C          65.1218   91.4775   13.8532 C.ar    1  UNL1        0.0067
     25 C          66.4739   91.3823   14.4956 C.ar    1  UNL1       -0.0018
     26 C          67.6875   91.8771   13.7660 C.ar    1  UNL1        0.0006
     27 C          67.5491   92.4670   12.3939 C.ar    1  UNL1        0.0114
     28 C          66.1970   92.5622   11.7514 C.ar    1  UNL1        0.0574
     29 CL         66.0586   93.1522   10.3792 Cl      1  UNL1       -0.0823
     30 C          64.9834   92.0675   12.4810 C.ar    1  UNL1        0.0095
     31 N          59.8684   90.4861    5.8628 N.pl3   1  UNL1       -0.3046
     32 C          58.5027   91.0193    5.5459 C.3     1  UNL1        0.1081
     33 C          58.3282   92.0340    4.4551 C.3     1  UNL1        0.0942
     34 N          59.5195   92.5155    3.6811 N.3     1  UNL1       -0.2620
     35 C          60.8853   91.9823    3.9980 C.3     1  UNL1        0.0942
     36 C          61.0597   90.9676    5.0889 C.3     1  UNL1        0.1081
     37 C          59.3452   93.5302    2.5903 C.3     1  UNL1        0.1585
     38 C          59.7777   93.2083    1.1905 C.2     1  UNL1        0.2389
     39 O          61.2191   93.3486    0.8000 O.2     1  UNL1       -0.2736
     40 N          58.7688   92.7463    0.1812 N.am    1  UNL1       -0.3006
     41 H          57.8227   92.6542    0.4375 H       1  UNL1        0.1496
     42 C          59.2013   92.4245   -1.2185 C.3     1  UNL1        0.1278
     43 C          58.3768   92.8867   -2.3832 C.3     1  UNL1        0.2143
     44 F          58.2549   92.0248   -3.6048 F       1  UNL1       -0.2324
@<TRIPOS>BOND
     1     1     2    1
     2     2     3    2
     3     3     4    1
     4     4    31    1
     5    31    32    1
     6    32    33    1
     7    33    34    1
     8    34    37    1
     9    37    38    1
    10    38    39    2
    11    38    40   am
    12    40    42    1
    13    42    43    1
    14    43    44    1
    15    34    35    1
    16    35    36    1
    17     4     5    2
    18     5     6    1
    19     6     7    2
    20     7     8    1
    21     8    11    1
    22    11    12    1
    23    12    18    1
    24    18    20    1
    25    20    21    1
    26    21    22    1
    27    21    24    1
    28    24    25   ar
    29    25    26   ar
    30    26    27   ar
    31    27    28   ar
    32    28    29    1
    33    28    30   ar
    34    12    13    2
    35    13    14    1
    36    14    15    2
    37    15    16    1
    38    16    17    2
    39     8     9    2
    40     9    10    1
    41    10     2    1
    42    36    31    1
    43    10     6    1
    44    16    11    1
    45    30    24   ar
    46    40    41    1
    47    18    19    1
    48    22    23    1
@<TRIPOS>MOLECULE
*****
 44 48 0 0 0
SMALL
GASTEIGER

@<TRIPOS>ATOM
      1 C          58.4397   86.3432    8.3937 C.3     1  UNL1        0.0312
      2 C          59.3655   87.5125    8.2334 C.2     1  UNL1        0.0136
      3 C          59.1807   88.4641    7.0888 C.2     1  UNL1        0.0107
      4 C          60.1065   89.6333    6.9286 C.2     1  UNL1        0.0510
      5 C          61.2172   89.8510    7.9130 C.2     1  UNL1        0.0613
      6 C          61.4020   88.8993    9.0576 C.2     1  UNL1        0.2246
      7 N          62.3995   88.8576   10.1771 N.2     1  UNL1       -0.0378
      8 C          62.0901   87.6625   11.0293 C.2     1  UNL1        0.3605
      9 N          60.9014   86.9657   10.4364 N.2     1  UNL1       -0.0547
     10 C          60.4762   87.7301    9.2178 C.3     1  UNL1        0.2976
     11 C          62.8380   87.2387   12.2585 C.3     1  UNL1        0.2246
     12 C          63.5762   88.2572   13.0757 C.2     1  UNL1        0.0436
     13 C          64.3241   87.8332   14.3050 C.2     1  UNL1        0.0288
     14 C          64.3339   86.3910   14.7169 C.2     1  UNL1        0.0896
     15 N          63.5958   85.3725   13.8997 N.am    1  UNL1       -0.1770
     16 C          62.8479   85.7964   12.6704 C.2     1  UNL1        0.2627
     17 O          62.1098   84.7780   11.8532 O.2     1  UNL1       -0.2719
     18 N          63.5664   89.6994   12.6639 N.pl3   1  UNL1       -0.3329
     19 H          63.8332   89.9524   11.7506 H       1  UNL1        0.1466
     20 C          63.1501   90.7564   13.6434 C.3     1  UNL1        0.1211
     21 C          63.8937   90.9153   14.9364 C.3     1  UNL1        0.1522
     22 O          63.2606   90.4784   16.2242 O.3     1  UNL1       -0.3783
     23 H          62.3779   90.1187   16.0448 H       1  UNL1        0.2109
     24 C          65.2703   91.5110   14.9416 C.ar    1  UNL1        0.0067
     25 C          65.7228   92.3438   16.1042 C.ar    1  UNL1       -0.0018
     26 C          67.0994   92.9395   16.1094 C.ar    1  UNL1        0.0006
     27 C          68.0236   92.7024   14.9519 C.ar    1  UNL1        0.0114
     28 C          67.5711   91.8697   13.7893 C.ar    1  UNL1        0.0574
     29 CL         68.4953   91.6326   12.6319 Cl      1  UNL1       -0.0823
     30 C          66.1945   91.2740   13.7841 C.ar    1  UNL1        0.0095
     31 N          59.9217   90.5850    5.7839 N.pl3   1  UNL1       -0.3046
     32 C          61.1008   90.9972    4.9533 C.3     1  UNL1        0.1081
     33 C          60.9160   91.9488    3.8087 C.3     1  UNL1        0.0942
     34 N          59.5521   92.4883    3.4946 N.3     1  UNL1       -0.2620
     35 C          58.3730   92.0761    4.3252 C.3     1  UNL1        0.0942
     36 C          58.5578   91.1245    5.4698 C.3     1  UNL1        0.1081
     37 C          59.3672   93.4399    2.3500 C.3     1  UNL1        0.1585
     38 C          60.3380   93.4354    1.2066 C.2     1  UNL1        0.2389
     39 O          60.0546   92.6117   -0.0146 O.2     1  UNL1       -0.2736
     40 N          61.5922   94.2545    1.2842 N.am    1  UNL1       -0.3006
     41 H          61.7783   94.7951    2.0857 H       1  UNL1        0.1496
     42 C          62.5630   94.2499    0.1407 C.3     1  UNL1        0.1278
     43 C          64.0163   93.9765    0.3919 C.3     1  UNL1        0.2143
     44 F          64.4309   92.7279    1.1124 F       1  UNL1       -0.2324
@<TRIPOS>BOND
     1     1     2    1
     2     2     3    2
     3     3     4    1
     4     4    31    1
     5    31    32    1
     6    32    33    1
     7    33    34    1
     8    34    37    1
     9    37    38    1
    10    38    39    2
    11    38    40   am
    12    40    42    1
    13    42    43    1
    14    43    44    1
    15    34    35    1
    16    35    36    1
    17     4     5    2
    18     5     6    1
    19     6     7    2
    20     7     8    1
    21     8    11    1
    22    11    12    1
    23    12    18    1
    24    18    20    1
    25    20    21    1
    26    21    22    1
    27    21    24    1
    28    24    25   ar
    29    25    26   ar
    30    26    27   ar
    31    27    28   ar
    32    28    29    1
    33    28    30   ar
    34    12    13    2
    35    13    14    1
    36    14    15    2
    37    15    16    1
    38    16    17    2
    39     8     9    2
    40     9    10    1
    41    10     2    1
    42    36    31    1
    43    10     6    1
    44    16    11    1
    45    30    24   ar
    46    40    41    1
    47    18    19    1
    48    22    23    1
@<TRIPOS>MOLECULE
*****
 44 48 0 0 0
SMALL
GASTEIGER

@<TRIPOS>ATOM
      1 C          57.4347   91.7719   -1.0586 C.3     1  UNL1        0.0312
      2 C          57.2059   93.2038   -1.4424 C.2     1  UNL1        0.0136
      3 C          55.8896   93.6223   -2.0275 C.2     1  UNL1        0.0107
      4 C          55.6608   95.0541   -2.4113 C.2     1  UNL1        0.0510
      5 C          56.7482   96.0676   -2.2101 C.2     1  UNL1        0.0613
      6 C          58.0645   95.6491   -1.6250 C.2     1  UNL1        0.2246
      7 N          59.3136   96.4183   -1.3119 N.2     1  UNL1       -0.0378
      8 C          60.3144   95.4618   -0.7345 C.2     1  UNL1        0.3605
      9 N          59.6839   94.1015   -0.6908 N.2     1  UNL1       -0.0547
     10 C          58.2933   94.2172   -1.2412 C.3     1  UNL1        0.2976
     11 C          61.7022   95.8053   -0.2806 C.3     1  UNL1        0.2246
     12 C          62.6468   96.5002   -1.2158 C.2     1  UNL1        0.0436
     13 C          64.0346   96.8437   -0.7618 C.2     1  UNL1        0.0288
     14 C          64.4778   96.4922    0.6275 C.2     1  UNL1        0.0896
     15 N          63.5331   95.7973    1.5628 N.am    1  UNL1       -0.1770
     16 C          62.1453   95.4539    1.1087 C.2     1  UNL1        0.2627
     17 O          61.2007   94.7589    2.0440 O.2     1  UNL1       -0.2719
     18 N          62.2037   96.8517   -2.6051 N.pl3   1  UNL1       -0.3329
     19 H          61.8091   97.7350   -2.7872 H       1  UNL1        0.1466
     20 C          62.3619   95.8573   -3.7169 C.3     1  UNL1        0.1211
     21 C          61.4010   94.7123   -3.8414 C.3     1  UNL1        0.1522
     22 O          61.6992   93.4062   -3.1669 O.3     1  UNL1       -0.3783
     23 H          62.5449   93.4709   -2.6964 H       1  UNL1        0.2109
     24 C          60.1418   94.8735   -4.6405 C.ar    1  UNL1        0.0067
     25 C          59.9382   96.0995   -5.4803 C.ar    1  UNL1       -0.0018
     26 C          58.6790   96.2607   -6.2794 C.ar    1  UNL1        0.0006
     27 C          57.6234   95.1957   -6.2387 C.ar    1  UNL1        0.0114
     28 C          57.8270   93.9697   -5.3989 C.ar    1  UNL1        0.0574
     29 CL         56.7714   92.9048   -5.3581 Cl      1  UNL1       -0.0823
     30 C          59.0862   93.8085   -4.5998 C.ar    1  UNL1        0.0095
     31 N          54.3444   95.4726   -2.9965 N.pl3   1  UNL1       -0.3046
     32 C          53.1513   95.6536   -2.1056 C.3     1  UNL1        0.1081
     33 C          51.8350   96.0720   -2.6906 C.3     1  UNL1        0.0942
     34 N          51.7119   96.3095   -4.1666 N.3     1  UNL1       -0.2620
     35 C          52.9051   96.1286   -5.0575 C.3     1  UNL1        0.0942
     36 C          54.2213   95.7101   -4.4724 C.3     1  UNL1        0.1081
     37 C          50.3957   96.7280   -4.7517 C.3     1  UNL1        0.1585
     38 C          49.8442   96.0096   -5.9475 C.2     1  UNL1        0.2389
     39 O          50.3157   96.3732   -7.3242 O.2     1  UNL1       -0.2736
     40 N          48.8211   94.9276   -5.7665 N.am    1  UNL1       -0.3006
     41 H          48.5116   94.6890   -4.8629 H       1  UNL1        0.1496
     42 C          48.2697   94.2093   -6.9623 C.3     1  UNL1        0.1278
     43 C          47.2168   93.1559   -6.7846 C.3     1  UNL1        0.2143
     44 F          47.4937   91.9557   -5.9285 F       1  UNL1       -0.2324
@<TRIPOS>BOND
     1     1     2    1
     2     2     3    2
     3     3     4    1
     4     4    31    1
     5    31    32    1
     6    32    33    1
     7    33    34    1
     8    34    37    1
     9    37    38    1
    10    38    39    2
    11    38    40   am
    12    40    42    1
    13    42    43    1
    14    43    44    1
    15    34    35    1
    16    35    36    1
    17     4     5    2
    18     5     6    1
    19     6     7    2
    20     7     8    1
    21     8    11    1
    22    11    12    1
    23    12    18    1
    24    18    20    1
    25    20    21    1
    26    21    22    1
    27    21    24    1
    28    24    25   ar
    29    25    26   ar
    30    26    27   ar
    31    27    28   ar
    32    28    29    1
    33    28    30   ar
    34    12    13    2
    35    13    14    1
    36    14    15    2
    37    15    16    1
    38    16    17    2
    39     8     9    2
    40     9    10    1
    41    10     2    1
    42    36    31    1
    43    10     6    1
    44    16    11    1
    45    30    24   ar
    46    40    41    1
    47    18    19    1
    48    22    23    1
@<TRIPOS>MOLECULE
*****
 44 48 0 0 0
SMALL
GASTEIGER

@<TRIPOS>ATOM
      1 C          62.8344   88.5009   17.9727 C.3     1  UNL1        0.0312
      2 C          63.2929   87.9653   16.6487 C.2     1  UNL1        0.0136
      3 C          63.0635   86.5240   16.3026 C.2     1  UNL1        0.0107
      4 C          63.5219   85.9884   14.9786 C.2     1  UNL1        0.0510
      5 C          64.2098   86.8942   14.0006 C.2     1  UNL1        0.0613
      6 C          64.4392   88.3356   14.3468 C.2     1  UNL1        0.2246
      7 N          65.0846   89.4589   13.5907 N.2     1  UNL1       -0.0378
      8 C          65.0250   90.6887   14.4474 C.2     1  UNL1        0.3605
      9 N          64.3428   90.3255   15.7330 N.2     1  UNL1       -0.0547
     10 C          63.9808   88.8711   15.6708 C.3     1  UNL1        0.2976
     11 C          65.5546   92.0439   14.0827 C.3     1  UNL1        0.2246
     12 C          65.5442   92.4929   12.6515 C.2     1  UNL1        0.0436
     13 C          66.0738   93.8481   12.2869 C.2     1  UNL1        0.0288
     14 C          66.6139   94.7543   13.3533 C.2     1  UNL1        0.0896
     15 N          66.6243   94.3052   14.7844 N.am    1  UNL1       -0.1770
     16 C          66.0947   92.9500   15.1491 C.2     1  UNL1        0.2627
     17 O          66.1051   92.5010   16.5803 O.2     1  UNL1       -0.2719
     18 N          65.0042   91.5869   11.5851 N.pl3   1  UNL1       -0.3329
     19 H          65.5938   91.2707   10.8628 H       1  UNL1        0.1466
     20 C          63.5659   91.1624   11.6190 C.3     1  UNL1        0.1211
     21 C          62.8322   90.8959   10.3382 C.3     1  UNL1        0.1522
     22 O          62.9344   91.8667    9.1993 O.3     1  UNL1       -0.3783
     23 H          63.5091   92.6053    9.4546 H       1  UNL1        0.2109
     24 C          61.9961   89.6586   10.1963 C.ar    1  UNL1        0.0067
     25 C          60.8021   89.6602    9.2883 C.ar    1  UNL1       -0.0018
     26 C          59.9661   88.4229    9.1464 C.ar    1  UNL1        0.0006
     27 C          60.3241   87.1839    9.9124 C.ar    1  UNL1        0.0114
     28 C          61.5180   87.1823   10.8204 C.ar    1  UNL1        0.0574
     29 CL         61.8760   85.9433   11.5864 Cl      1  UNL1       -0.0823
     30 C          62.3541   88.4196   10.9623 C.ar    1  UNL1        0.0095
     31 N          63.2924   84.5470   14.6325 N.pl3   1  UNL1       -0.3046
     32 C          64.3864   83.7466   13.9901 C.3     1  UNL1        0.1081
     33 C          64.1570   82.3052   13.6440 C.3     1  UNL1        0.0942
     34 N          62.8336   81.6643   13.9403 N.3     1  UNL1       -0.2620
     35 C          61.7396   82.4646   14.5827 C.3     1  UNL1        0.0942
     36 C          61.9691   83.9060   14.9288 C.3     1  UNL1        0.1081
     37 C          62.6041   80.2229   13.5942 C.3     1  UNL1        0.1585
     38 C          62.6787   79.7737   12.1649 C.2     1  UNL1        0.2389
     39 O          62.8081   80.7866   11.0662 O.2     1  UNL1       -0.2736
     40 N          62.6240   78.3116   11.8344 N.am    1  UNL1       -0.3006
     41 H          62.5391   77.6467   12.5555 H       1  UNL1        0.1496
     42 C          62.6986   77.8624   10.4052 C.3     1  UNL1        0.1278
     43 C          63.4233   76.5971   10.0536 C.3     1  UNL1        0.2143
     44 F          64.7514   76.6615    9.3594 F       1  UNL1       -0.2324
@<TRIPOS>BOND
     1     1     2    1
     2     2     3    2
     3     3     4    1
     4     4    31    1
     5    31    32    1
     6    32    33    1
     7    33    34    1
     8    34    37    1
     9    37    38    1
    10    38    39    2
    11    38    40   am
    12    40    42    1
    13    42    43    1
    14    43    44    1
    15    34    35    1
    16    35    36    1
    17     4     5    2
    18     5     6    1
    19     6     7    2
    20     7     8    1
    21     8    11    1
    22    11    12    1
    23    12    18    1
    24    18    20    1
    25    20    21    1
    26    21    22    1
    27    21    24    1
    28    24    25   ar
    29    25    26   ar
    30    26    27   ar
    31    27    28   ar
    32    28    29    1
    33    28    30   ar
    34    12    13    2
    35    13    14    1
    36    14    15    2
    37    15    16    1
    38    16    17    2
    39     8     9    2
    40     9    10    1
    41    10     2    1
    42    36    31    1
    43    10     6    1
    44    16    11    1
    45    30    24   ar
    46    40    41    1
    47    18    19    1
    48    22    23    1
