@<TRIPOS>MOLECULE
*****
 28 31 0 0 0
SMALL
GASTEIGER

@<TRIPOS>ATOM
      1 C          63.4782   91.0640   16.6512 C.3     1  UNL1        0.0310
      2 C          63.5859   89.6383   16.1976 C.ar    1  UNL1       -0.0218
      3 C          63.0138   88.5377   17.0409 C.ar    1  UNL1       -0.0041
      4 C          63.1215   87.1120   16.5872 C.ar    1  UNL1        0.0042
      5 C          63.8013   86.7869   15.2902 C.ar    1  UNL1        0.0533
      6 C          64.3734   87.8876   14.4469 C.ar    1  UNL1        0.0042
      7 C          64.2657   89.3133   14.9006 C.ar    1  UNL1       -0.0038
      8 C          64.8379   90.4140   14.0572 C.ar    1  UNL1       -0.0003
      9 C          64.0952   90.8936   12.8454 C.ar    1  UNL1        0.0001
     10 C          64.6673   91.9942   12.0021 C.ar    1  UNL1        0.0045
     11 C          65.9821   92.6153   12.3705 C.ar    1  UNL1        0.0534
     12 C          66.7247   92.1357   13.5823 C.ar    1  UNL1        0.0045
     13 C          66.1526   91.0350   14.4257 C.ar    1  UNL1        0.0001
     14 C          66.5542   93.7159   11.5271 C.2     1  UNL1        0.2458
     15 O          67.7253   93.4424   10.6307 O.2     1  UNL1       -0.2701
     16 N          65.9551   95.0901   11.5802 N.am    1  UNL1       -0.3009
     17 H          65.1865   95.2696   12.1685 H       1  UNL1        0.1497
     18 C          66.5272   96.1907   10.7368 C.3     1  UNL1        0.0896
     19 C          66.4642   96.0994    9.2409 C.3     1  UNL1        0.0196
     20 C          66.8613   95.4219    7.9630 C.3     1  UNL1        0.0017
     21 C          65.9578   96.6187    7.9280 C.3     1  UNL1        0.0017
     22 C          63.9090   85.3613   14.8366 C.2     1  UNL1        0.2458
     23 O          65.2470   84.7890   14.4727 O.2     1  UNL1       -0.2701
     24 N          62.6788   84.5078   14.7468 N.am    1  UNL1       -0.3025
     25 H          61.8006   84.8834   14.9856 H       1  UNL1        0.1497
     26 C          62.7865   83.0821   14.2931 C.3     1  UNL1        0.0720
     27 C          62.1932   81.7101   14.1689 C.3     1  UNL1        0.0213
     28 C          63.5664   81.9848   13.6316 C.3     1  UNL1        0.0213
@<TRIPOS>BOND
     1     1     2    1
     2     2     3   ar
     3     3     4   ar
     4     4     5   ar
     5     5    22    1
     6    22    23    2
     7    22    24   am
     8    24    26    1
     9    26    27    1
    10    27    28    1
    11     5     6   ar
    12     6     7   ar
    13     7     8    1
    14     8     9   ar
    15     9    10   ar
    16    10    11   ar
    17    11    14    1
    18    14    15    2
    19    14    16   am
    20    16    18    1
    21    18    19    1
    22    19    20    1
    23    20    21    1
    24    11    12   ar
    25    12    13   ar
    26     7     2   ar
    27    13     8   ar
    28    28    26    1
    29    21    19    1
    30    24    25    1
    31    16    17    1
@<TRIPOS>MOLECULE
*****
 28 31 0 0 0
SMALL
GASTEIGER

@<TRIPOS>ATOM
      1 C          62.8002   86.5220   11.6353 C.3     1  UNL1        0.0310
      2 C          61.9299   87.1328   10.5772 C.ar    1  UNL1       -0.0218
      3 C          61.0823   86.2552    9.7046 C.ar    1  UNL1       -0.0041
      4 C          60.2119   86.8659    8.6466 C.ar    1  UNL1        0.0042
      5 C          60.1891   88.3542    8.4611 C.ar    1  UNL1        0.0533
      6 C          61.0367   89.2318    9.3337 C.ar    1  UNL1        0.0042
      7 C          61.9071   88.6210   10.3917 C.ar    1  UNL1       -0.0038
      8 C          62.7547   89.4987   11.2643 C.ar    1  UNL1       -0.0003
      9 C          63.0288   89.1032   12.6851 C.ar    1  UNL1        0.0001
     10 C          63.8764   89.9808   13.5577 C.ar    1  UNL1        0.0045
     11 C          64.4499   91.2539   13.0095 C.ar    1  UNL1        0.0534
     12 C          64.1758   91.6494   11.5888 C.ar    1  UNL1        0.0045
     13 C          63.3282   90.7717   10.7162 C.ar    1  UNL1        0.0001
     14 C          65.2975   92.1315   13.8821 C.2     1  UNL1        0.2458
     15 O          65.9287   93.3681   13.3145 O.2     1  UNL1       -0.2701
     16 N          65.5138   91.7724   15.3223 N.am    1  UNL1       -0.3009
     17 H          65.0995   90.9607   15.6949 H       1  UNL1        0.1497
     18 C          66.3614   92.6500   16.1949 C.3     1  UNL1        0.0896
     19 C          67.7872   92.9271   15.8205 C.3     1  UNL1        0.0196
     20 C          69.0416   93.7320   15.9892 C.3     1  UNL1        0.0017
     21 C          69.0023   92.6023   15.0033 C.3     1  UNL1        0.0017
     22 C          59.3188   88.9649    7.4030 C.2     1  UNL1        0.2458
     23 O          58.0390   88.2920    7.0041 O.2     1  UNL1       -0.2701
     24 N          59.7282   90.2486    6.7439 N.am    1  UNL1       -0.3025
     25 H          60.5682   90.6903    7.0057 H       1  UNL1        0.1497
     26 C          58.8579   90.8593    5.6858 C.3     1  UNL1        0.0720
     27 C          58.7112   91.6767    4.4367 C.3     1  UNL1        0.0213
     28 C          57.4971   91.0997    5.1024 C.3     1  UNL1        0.0213
@<TRIPOS>BOND
     1     1     2    1
     2     2     3   ar
     3     3     4   ar
     4     4     5   ar
     5     5    22    1
     6    22    23    2
     7    22    24   am
     8    24    26    1
     9    26    27    1
    10    27    28    1
    11     5     6   ar
    12     6     7   ar
    13     7     8    1
    14     8     9   ar
    15     9    10   ar
    16    10    11   ar
    17    11    14    1
    18    14    15    2
    19    14    16   am
    20    16    18    1
    21    18    19    1
    22    19    20    1
    23    20    21    1
    24    11    12   ar
    25    12    13   ar
    26     7     2   ar
    27    13     8   ar
    28    28    26    1
    29    21    19    1
    30    24    25    1
    31    16    17    1
@<TRIPOS>MOLECULE
*****
 28 31 0 0 0
SMALL
GASTEIGER

@<TRIPOS>ATOM
      1 C          61.8871   88.5275   10.7742 C.3     1  UNL1        0.0310
      2 C          62.7770   89.2813   11.7175 C.ar    1  UNL1       -0.0218
      3 C          62.9199   90.7687   11.5866 C.ar    1  UNL1       -0.0041
      4 C          63.8098   91.5226   12.5299 C.ar    1  UNL1        0.0042
      5 C          64.5567   90.7891   13.6041 C.ar    1  UNL1        0.0533
      6 C          64.4139   89.3017   13.7350 C.ar    1  UNL1        0.0042
      7 C          63.5240   88.5478   12.7917 C.ar    1  UNL1       -0.0038
      8 C          63.3811   87.0603   12.9226 C.ar    1  UNL1       -0.0003
      9 C          63.9447   86.3553   14.1207 C.ar    1  UNL1        0.0001
     10 C          63.8019   84.8679   14.2516 C.ar    1  UNL1        0.0045
     11 C          63.0955   84.0854   13.1845 C.ar    1  UNL1        0.0534
     12 C          62.5319   84.7904   11.9864 C.ar    1  UNL1        0.0045
     13 C          62.6748   86.2779   11.8555 C.ar    1  UNL1        0.0001
     14 C          62.9527   82.5980   13.3154 C.2     1  UNL1        0.2458
     15 O          62.8552   81.9708   14.6744 O.2     1  UNL1       -0.2701
     16 N          62.9073   81.7379   12.0874 N.am    1  UNL1       -0.3009
     17 H          62.9712   82.1497   11.1954 H       1  UNL1        0.1497
     18 C          62.7645   80.2505   12.2183 C.3     1  UNL1        0.0896
     19 C          62.7409   79.3884   10.9911 C.3     1  UNL1        0.0196
     20 C          62.7138   79.2555    9.4972 C.3     1  UNL1        0.0017
     21 C          62.7273   78.0280   10.3593 C.3     1  UNL1        0.0017
     22 C          65.4466   91.5430   14.5474 C.2     1  UNL1        0.2458
     23 O          64.8690   92.1776   15.7777 O.2     1  UNL1       -0.2701
     24 N          66.9140   91.6622   14.2604 N.am    1  UNL1       -0.3025
     25 H          67.2931   91.2457   13.4530 H       1  UNL1        0.1497
     26 C          67.8039   92.4161   15.2037 C.3     1  UNL1        0.0720
     27 C          68.7939   92.4222   16.3306 C.3     1  UNL1        0.0213
     28 C          68.3551   93.7157   15.7107 C.3     1  UNL1        0.0213
@<TRIPOS>BOND
     1     1     2    1
     2     2     3   ar
     3     3     4   ar
     4     4     5   ar
     5     5    22    1
     6    22    23    2
     7    22    24   am
     8    24    26    1
     9    26    27    1
    10    27    28    1
    11     5     6   ar
    12     6     7   ar
    13     7     8    1
    14     8     9   ar
    15     9    10   ar
    16    10    11   ar
    17    11    14    1
    18    14    15    2
    19    14    16   am
    20    16    18    1
    21    18    19    1
    22    19    20    1
    23    20    21    1
    24    11    12   ar
    25    12    13   ar
    26     7     2   ar
    27    13     8   ar
    28    28    26    1
    29    21    19    1
    30    24    25    1
    31    16    17    1
@<TRIPOS>MOLECULE
*****
 28 31 0 0 0
SMALL
GASTEIGER

@<TRIPOS>ATOM
      1 C          61.9917   88.7401   10.2433 C.3     1  UNL1        0.0310
      2 C          62.8311   89.4276   11.2790 C.ar    1  UNL1       -0.0218
      3 C          63.0836   90.9029   11.1812 C.ar    1  UNL1       -0.0041
      4 C          63.9230   91.5905   12.2169 C.ar    1  UNL1        0.0042
      5 C          64.5098   90.8027   13.3505 C.ar    1  UNL1        0.0533
      6 C          64.2573   89.3274   13.4483 C.ar    1  UNL1        0.0042
      7 C          63.4179   88.6399   12.4126 C.ar    1  UNL1       -0.0038
      8 C          63.1654   87.1645   12.5105 C.ar    1  UNL1       -0.0003
      9 C          62.3957   86.4621   11.4314 C.ar    1  UNL1        0.0001
     10 C          62.1431   84.9868   11.5293 C.ar    1  UNL1        0.0045
     11 C          62.6603   84.2138   12.7062 C.ar    1  UNL1        0.0534
     12 C          63.4300   84.9161   13.7852 C.ar    1  UNL1        0.0045
     13 C          63.6825   86.3915   13.6873 C.ar    1  UNL1        0.0001
     14 C          62.4078   82.7384   12.8040 C.2     1  UNL1        0.2458
     15 O          62.9092   81.8189   11.7303 O.2     1  UNL1       -0.2701
     16 N          61.6538   82.1827   13.9756 N.am    1  UNL1       -0.3009
     17 H          61.3246   82.7862   14.6804 H       1  UNL1        0.1497
     18 C          61.4012   80.7073   14.0735 C.3     1  UNL1        0.0896
     19 C          60.0000   80.1949   14.2278 C.3     1  UNL1        0.0196
     20 C          58.5205   80.4417   14.2398 C.3     1  UNL1        0.0017
     21 C          59.0524   79.0605   14.4831 C.3     1  UNL1        0.0017
     22 C          65.3492   91.4903   14.3862 C.2     1  UNL1        0.2458
     23 O          64.7225   91.9703   15.6616 O.2     1  UNL1       -0.2701
     24 N          66.8152   91.6979   14.1465 N.am    1  UNL1       -0.3025
     25 H          67.2266   91.3828   13.3093 H       1  UNL1        0.1497
     26 C          67.6546   92.3854   15.1822 C.3     1  UNL1        0.0720
     27 C          68.2928   93.6324   15.7184 C.3     1  UNL1        0.0213
     28 C          68.4702   92.3293   16.4398 C.3     1  UNL1        0.0213
@<TRIPOS>BOND
     1     1     2    1
     2     2     3   ar
     3     3     4   ar
     4     4     5   ar
     5     5    22    1
     6    22    23    2
     7    22    24   am
     8    24    26    1
     9    26    27    1
    10    27    28    1
    11     5     6   ar
    12     6     7   ar
    13     7     8    1
    14     8     9   ar
    15     9    10   ar
    16    10    11   ar
    17    11    14    1
    18    14    15    2
    19    14    16   am
    20    16    18    1
    21    18    19    1
    22    19    20    1
    23    20    21    1
    24    11    12   ar
    25    12    13   ar
    26     7     2   ar
    27    13     8   ar
    28    28    26    1
    29    21    19    1
    30    24    25    1
    31    16    17    1
@<TRIPOS>MOLECULE
*****
 28 31 0 0 0
SMALL
GASTEIGER

@<TRIPOS>ATOM
      1 C          63.4257   89.6042   12.5479 C.3     1  UNL1        0.0310
      2 C          63.4444   88.1437   12.8894 C.ar    1  UNL1       -0.0218
      3 C          64.2496   87.6568   14.0575 C.ar    1  UNL1       -0.0041
      4 C          64.2683   86.1963   14.3990 C.ar    1  UNL1        0.0042
      5 C          63.4819   85.2227   13.5723 C.ar    1  UNL1        0.0533
      6 C          62.6767   85.7096   12.4041 C.ar    1  UNL1        0.0042
      7 C          62.6580   87.1701   12.0626 C.ar    1  UNL1       -0.0038
      8 C          61.8528   87.6569   10.8944 C.ar    1  UNL1       -0.0003
      9 C          61.7549   86.8230    9.6514 C.ar    1  UNL1        0.0001
     10 C          60.9497   87.3098    8.4832 C.ar    1  UNL1        0.0045
     11 C          60.2425   88.6305    8.5579 C.ar    1  UNL1        0.0534
     12 C          60.3404   89.4644    9.8009 C.ar    1  UNL1        0.0045
     13 C          61.1456   88.9776   10.9692 C.ar    1  UNL1        0.0001
     14 C          59.4373   89.1173    7.3897 C.2     1  UNL1        0.2458
     15 O          58.1581   88.4265    7.0207 O.2     1  UNL1       -0.2701
     16 N          59.9115   90.2948    6.5906 N.am    1  UNL1       -0.3009
     17 H          60.7511   90.7482    6.8329 H       1  UNL1        0.1497
     18 C          59.1063   90.7816    5.4224 C.3     1  UNL1        0.0896
     19 C          59.7233   91.7146    4.4229 C.3     1  UNL1        0.0196
     20 C          59.6231   92.9221    3.5388 C.3     1  UNL1        0.0017
     21 C          60.8919   92.1229    3.5760 C.3     1  UNL1        0.0017
     22 C          63.5006   83.7622   13.9137 C.2     1  UNL1        0.2458
     23 O          64.3072   83.2751   15.0808 O.2     1  UNL1       -0.2701
     24 N          62.7127   82.7888   13.0881 N.am    1  UNL1       -0.3025
     25 H          62.1833   83.1085   12.3221 H       1  UNL1        0.1497
     26 C          62.7314   81.3283   13.4295 C.3     1  UNL1        0.0720
     27 C          63.4827   80.1063   13.8680 C.3     1  UNL1        0.0213
     28 C          62.0126   80.0207   13.5824 C.3     1  UNL1        0.0213
@<TRIPOS>BOND
     1     1     2    1
     2     2     3   ar
     3     3     4   ar
     4     4     5   ar
     5     5    22    1
     6    22    23    2
     7    22    24   am
     8    24    26    1
     9    26    27    1
    10    27    28    1
    11     5     6   ar
    12     6     7   ar
    13     7     8    1
    14     8     9   ar
    15     9    10   ar
    16    10    11   ar
    17    11    14    1
    18    14    15    2
    19    14    16   am
    20    16    18    1
    21    18    19    1
    22    19    20    1
    23    20    21    1
    24    11    12   ar
    25    12    13   ar
    26     7     2   ar
    27    13     8   ar
    28    28    26    1
    29    21    19    1
    30    24    25    1
    31    16    17    1
