@<TRIPOS>MOLECULE
*****
 27 29 0 0 0
SMALL
GASTEIGER

@<TRIPOS>ATOM
      1 C          65.1189   90.2061   14.7260 C.3     1  UNL1        0.1347
      2 N          64.2609   89.7571   13.5804 N.ar    1  UNL1       -0.2816
      3 C          63.8400   88.3212   13.4764 C.ar    1  UNL1        0.1332
      4 N          62.9820   87.8723   12.3308 N.ar    1  UNL1       -0.2170
      5 C          62.5450   88.8592   11.2893 C.ar    1  UNL1        0.1379
      6 C          62.9660   90.2952   11.3933 C.ar    1  UNL1        0.0950
      7 C          63.8239   90.7441   12.5389 C.ar    1  UNL1        0.2647
      8 O          64.2449   92.1801   12.6429 O.2     1  UNL1       -0.2668
      9 N          61.6871   88.4103   10.1437 N.pl3   1  UNL1       -0.2879
     10 C          60.7637   89.3830    9.4720 C.3     1  UNL1        0.1242
     11 C          59.9058   88.9340    8.3264 C.3     1  UNL1        0.1636
     12 O          59.9712   87.5124    7.8525 O.3     1  UNL1       -0.3501
     13 C          60.8945   86.5397    8.5242 C.3     1  UNL1        0.1636
     14 C          61.7525   86.9886    9.6698 C.3     1  UNL1        0.1242
     15 C          64.2770   87.3341   14.5180 C.3     1  UNL1        0.1491
     16 C          64.1496   85.8625   14.2569 C.2     1  UNL1        0.2338
     17 O          65.3001   84.9462   14.5516 O.2     1  UNL1       -0.2743
     18 N          62.8718   85.3072   13.7012 N.am    1  UNL1       -0.2835
     19 H          62.1167   85.9086   13.5078 H       1  UNL1        0.1549
     20 C          62.7444   83.8356   13.4402 C.ar    1  UNL1        0.0513
     21 C          62.2805   82.9176   14.5320 C.ar    1  UNL1        0.0170
     22 C          62.1532   81.4460   14.2710 C.ar    1  UNL1        0.0318
     23 C          62.4898   80.8924   12.9181 C.ar    1  UNL1        0.1507
     24 F          62.3624   79.4208   12.6571 F       1  UNL1       -0.2033
     25 C          62.9537   81.8104   11.8263 C.ar    1  UNL1        0.0863
     26 CL         63.2902   81.2568   10.4734 Cl      1  UNL1       -0.0799
     27 C          63.0810   83.2820   12.0874 C.ar    1  UNL1        0.0283
@<TRIPOS>BOND
     1     1     2    1
     2     2     3   ar
     3     3    15    1
     4    15    16    1
     5    16    17    2
     6    16    18   am
     7    18    20    1
     8    20    21   ar
     9    21    22   ar
    10    22    23   ar
    11    23    24    1
    12    23    25   ar
    13    25    26    1
    14    25    27   ar
    15     3     4   ar
    16     4     5   ar
    17     5     9    1
    18     9    10    1
    19    10    11    1
    20    11    12    1
    21    12    13    1
    22    13    14    1
    23     5     6   ar
    24     6     7   ar
    25     7     8    2
    26     7     2   ar
    27    27    20   ar
    28    14     9    1
    29    18    19    1
@<TRIPOS>MOLECULE
*****
 27 29 0 0 0
SMALL
GASTEIGER

@<TRIPOS>ATOM
      1 C          64.6017   89.9653   14.9319 C.3     1  UNL1        0.1347
      2 N          65.0660   90.9733   13.9228 N.ar    1  UNL1       -0.2816
      3 C          64.1777   91.3484   12.7739 C.ar    1  UNL1        0.1332
      4 N          64.6420   92.3564   11.7648 N.ar    1  UNL1       -0.2170
      5 C          65.9947   92.9893   11.9046 C.ar    1  UNL1        0.1379
      6 C          66.8831   92.6142   13.0535 C.ar    1  UNL1        0.0950
      7 C          66.4188   91.6062   14.0626 C.ar    1  UNL1        0.2647
      8 O          67.3072   91.2310   15.2115 O.2     1  UNL1       -0.2668
      9 N          66.4590   93.9973   10.8954 N.pl3   1  UNL1       -0.2879
     10 C          67.1812   93.5449    9.6611 C.3     1  UNL1        0.1242
     11 C          67.6455   94.5530    8.6519 C.3     1  UNL1        0.1636
     12 O          67.3877   96.0133    8.8772 O.3     1  UNL1       -0.3501
     13 C          66.6654   96.4657   10.1116 C.3     1  UNL1        0.1636
     14 C          66.2011   95.4577   11.1207 C.3     1  UNL1        0.1242
     15 C          62.8249   90.7155   12.6341 C.3     1  UNL1        0.1491
     16 C          62.5182   89.8565   11.4433 C.2     1  UNL1        0.2338
     17 O          63.0587   90.2251   10.0935 O.2     1  UNL1       -0.2743
     18 N          61.6709   88.6289   11.6022 N.am    1  UNL1       -0.2835
     19 H          61.3161   88.3870   12.4882 H       1  UNL1        0.1549
     20 C          61.3642   87.7700   10.4114 C.ar    1  UNL1        0.0513
     21 C          60.0197   87.8549    9.7517 C.ar    1  UNL1        0.0170
     22 C          59.7130   86.9959    8.5609 C.ar    1  UNL1        0.0318
     23 C          60.7508   86.0520    8.0297 C.ar    1  UNL1        0.1507
     24 F          60.4441   85.1930    6.8389 F       1  UNL1       -0.2033
     25 C          62.0953   85.9671    8.6895 C.ar    1  UNL1        0.0863
     26 CL         63.1330   85.0232    8.1584 Cl      1  UNL1       -0.0799
     27 C          62.4019   86.8261    9.8803 C.ar    1  UNL1        0.0283
@<TRIPOS>BOND
     1     1     2    1
     2     2     3   ar
     3     3    15    1
     4    15    16    1
     5    16    17    2
     6    16    18   am
     7    18    20    1
     8    20    21   ar
     9    21    22   ar
    10    22    23   ar
    11    23    24    1
    12    23    25   ar
    13    25    26    1
    14    25    27   ar
    15     3     4   ar
    16     4     5   ar
    17     5     9    1
    18     9    10    1
    19    10    11    1
    20    11    12    1
    21    12    13    1
    22    13    14    1
    23     5     6   ar
    24     6     7   ar
    25     7     8    2
    26     7     2   ar
    27    27    20   ar
    28    14     9    1
    29    18    19    1
@<TRIPOS>MOLECULE
*****
 27 29 0 0 0
SMALL
GASTEIGER

@<TRIPOS>ATOM
      1 C          60.3216   90.1880   10.3964 C.3     1  UNL1        0.1347
      2 N          61.0197   88.9155   10.7753 N.ar    1  UNL1       -0.2816
      3 C          62.2074   88.9555   11.6905 C.ar    1  UNL1        0.1332
      4 N          62.9055   87.6831   12.0694 N.ar    1  UNL1       -0.2170
      5 C          62.4158   86.3706   11.5331 C.ar    1  UNL1        0.1379
      6 C          61.2281   86.3307   10.6178 C.ar    1  UNL1        0.0950
      7 C          60.5301   87.6031   10.2389 C.ar    1  UNL1        0.2647
      8 O          59.3423   87.5631    9.3236 O.2     1  UNL1       -0.2668
      9 N          63.1139   85.0982   11.9120 N.pl3   1  UNL1       -0.2879
     10 C          63.5956   84.8971   13.3182 C.3     1  UNL1        0.1242
     11 C          64.2937   83.6246   13.6971 C.3     1  UNL1        0.1636
     12 O          64.5101   82.5533   12.6698 O.3     1  UNL1       -0.3501
     13 C          64.0284   82.7544   11.2636 C.3     1  UNL1        0.1636
     14 C          63.3303   84.0269   10.8847 C.3     1  UNL1        0.1242
     15 C          62.6971   90.2680   12.2269 C.3     1  UNL1        0.1491
     16 C          63.5861   91.1366   11.3873 C.2     1  UNL1        0.2338
     17 O          63.3123   91.2947    9.9210 O.2     1  UNL1       -0.2743
     18 N          64.7491   91.8473   12.0139 N.am    1  UNL1       -0.2835
     19 H          64.9288   91.7436   12.9763 H       1  UNL1        0.1549
     20 C          65.6381   92.7159   11.1742 C.ar    1  UNL1        0.0513
     21 C          65.3212   94.1723   11.0054 C.ar    1  UNL1        0.0170
     22 C          66.2103   95.0409   10.1658 C.ar    1  UNL1        0.0318
     23 C          67.4163   94.4531    9.4949 C.ar    1  UNL1        0.1507
     24 F          68.3054   95.3217    8.6552 F       1  UNL1       -0.2033
     25 C          67.7333   92.9967    9.6637 C.ar    1  UNL1        0.0863
     26 CL         68.9392   92.4090    8.9929 Cl      1  UNL1       -0.0799
     27 C          66.8441   92.1281   10.5034 C.ar    1  UNL1        0.0283
@<TRIPOS>BOND
     1     1     2    1
     2     2     3   ar
     3     3    15    1
     4    15    16    1
     5    16    17    2
     6    16    18   am
     7    18    20    1
     8    20    21   ar
     9    21    22   ar
    10    22    23   ar
    11    23    24    1
    12    23    25   ar
    13    25    26    1
    14    25    27   ar
    15     3     4   ar
    16     4     5   ar
    17     5     9    1
    18     9    10    1
    19    10    11    1
    20    11    12    1
    21    12    13    1
    22    13    14    1
    23     5     6   ar
    24     6     7   ar
    25     7     8    2
    26     7     2   ar
    27    27    20   ar
    28    14     9    1
    29    18    19    1
@<TRIPOS>MOLECULE
*****
 27 29 0 0 0
SMALL
GASTEIGER

@<TRIPOS>ATOM
      1 C          59.7474   88.9183    8.0501 C.3     1  UNL1        0.1347
      2 N          60.5298   87.9874    8.9283 N.ar    1  UNL1       -0.2816
      3 C          61.2843   88.5256   10.1077 C.ar    1  UNL1        0.1332
      4 N          62.0666   87.5947   10.9859 N.ar    1  UNL1       -0.2170
      5 C          62.0945   86.1256   10.6848 C.ar    1  UNL1        0.1379
      6 C          61.3401   85.5873    9.5054 C.ar    1  UNL1        0.0950
      7 C          60.5577   86.5182    8.6271 C.ar    1  UNL1        0.2647
      8 O          59.8032   85.9799    7.4477 O.2     1  UNL1       -0.2668
      9 N          62.8769   85.1947   11.5630 N.pl3   1  UNL1       -0.2879
     10 C          63.2721   83.8396   11.0556 C.3     1  UNL1        0.1242
     11 C          64.0544   82.9087   11.9338 C.3     1  UNL1        0.1636
     12 O          64.4416   83.3328   13.3195 O.3     1  UNL1       -0.3501
     13 C          64.0465   84.6879   13.8269 C.3     1  UNL1        0.1636
     14 C          63.2641   85.6189   12.9487 C.3     1  UNL1        0.1242
     15 C          61.2564   89.9949   10.4089 C.3     1  UNL1        0.1491
     16 C          62.4853   90.6764   10.9334 C.2     1  UNL1        0.2338
     17 O          63.2837   91.5767   10.0378 O.2     1  UNL1       -0.2743
     18 N          62.9160   90.4577   12.3535 N.am    1  UNL1       -0.2835
     19 H          62.3920   89.8668   12.9414 H       1  UNL1        0.1549
     20 C          64.1449   91.1392   12.8780 C.ar    1  UNL1        0.0513
     21 C          64.8151   90.6269   14.1184 C.ar    1  UNL1        0.0170
     22 C          66.0440   91.3085   14.6429 C.ar    1  UNL1        0.0318
     23 C          66.6029   92.5023   13.9270 C.ar    1  UNL1        0.1507
     24 F          67.8319   93.1838   14.4515 F       1  UNL1       -0.2033
     25 C          65.9328   93.0145   12.6866 C.ar    1  UNL1        0.0863
     26 CL         66.4917   94.2083   11.9707 Cl      1  UNL1       -0.0799
     27 C          64.7038   92.3330   12.1621 C.ar    1  UNL1        0.0283
@<TRIPOS>BOND
     1     1     2    1
     2     2     3   ar
     3     3    15    1
     4    15    16    1
     5    16    17    2
     6    16    18   am
     7    18    20    1
     8    20    21   ar
     9    21    22   ar
    10    22    23   ar
    11    23    24    1
    12    23    25   ar
    13    25    26    1
    14    25    27   ar
    15     3     4   ar
    16     4     5   ar
    17     5     9    1
    18     9    10    1
    19    10    11    1
    20    11    12    1
    21    12    13    1
    22    13    14    1
    23     5     6   ar
    24     6     7   ar
    25     7     8    2
    26     7     2   ar
    27    27    20   ar
    28    14     9    1
    29    18    19    1
@<TRIPOS>MOLECULE
*****
 27 29 0 0 0
SMALL
GASTEIGER

@<TRIPOS>ATOM
      1 C          63.4118   89.1462   16.5819 C.3     1  UNL1        0.1347
      2 N          63.4110   87.7692   15.9869 N.ar    1  UNL1       -0.2816
      3 C          63.6893   87.5839   14.5247 C.ar    1  UNL1        0.1332
      4 N          63.6885   86.2069   13.9297 N.ar    1  UNL1       -0.2170
      5 C          63.4095   85.0153   14.7969 C.ar    1  UNL1        0.1379
      6 C          63.1312   85.2007   16.2592 C.ar    1  UNL1        0.0950
      7 C          63.1320   86.5776   16.8542 C.ar    1  UNL1        0.2647
      8 O          62.8537   86.7629   18.3165 O.2     1  UNL1       -0.2668
      9 N          63.4087   83.6384   14.2019 N.pl3   1  UNL1       -0.2879
     10 C          64.3874   83.2881   13.1206 C.3     1  UNL1        0.1242
     11 C          64.3866   81.9111   12.5256 C.3     1  UNL1        0.1636
     12 O          63.4071   80.8845   13.0120 O.3     1  UNL1       -0.3501
     13 C          62.4284   81.2348   14.0933 C.3     1  UNL1        0.1636
     14 C          62.4292   82.6117   14.6883 C.3     1  UNL1        0.1242
     15 C          63.9683   88.7755   13.6573 C.3     1  UNL1        0.1491
     16 C          63.2051   88.9691   12.3807 C.2     1  UNL1        0.2338
     17 O          63.4375   90.1937   11.5462 O.2     1  UNL1       -0.2743
     18 N          62.2093   87.9381   11.9384 N.am    1  UNL1       -0.2835
     19 H          62.0567   87.1344   12.4861 H       1  UNL1        0.1549
     20 C          61.4461   88.1317   10.6617 C.ar    1  UNL1        0.0513
     21 C          60.9641   89.4988   10.2759 C.ar    1  UNL1        0.0170
     22 C          60.2009   89.6924    8.9993 C.ar    1  UNL1        0.0318
     23 C          59.9196   88.5189    8.1083 C.ar    1  UNL1        0.1507
     24 F          59.1563   88.7124    6.8316 F       1  UNL1       -0.2033
     25 C          60.4015   87.1518    8.4940 C.ar    1  UNL1        0.0863
     26 CL         60.1203   85.9783    7.6031 Cl      1  UNL1       -0.0799
     27 C          61.1648   86.9582    9.7708 C.ar    1  UNL1        0.0283
@<TRIPOS>BOND
     1     1     2    1
     2     2     3   ar
     3     3    15    1
     4    15    16    1
     5    16    17    2
     6    16    18   am
     7    18    20    1
     8    20    21   ar
     9    21    22   ar
    10    22    23   ar
    11    23    24    1
    12    23    25   ar
    13    25    26    1
    14    25    27   ar
    15     3     4   ar
    16     4     5   ar
    17     5     9    1
    18     9    10    1
    19    10    11    1
    20    11    12    1
    21    12    13    1
    22    13    14    1
    23     5     6   ar
    24     6     7   ar
    25     7     8    2
    26     7     2   ar
    27    27    20   ar
    28    14     9    1
    29    18    19    1
@<TRIPOS>MOLECULE
*****
 27 29 0 0 0
SMALL
GASTEIGER

@<TRIPOS>ATOM
      1 C          64.3755   88.3625   14.4312 C.3     1  UNL1        0.1347
      2 N          63.5935   87.9717   13.2122 N.ar    1  UNL1       -0.2816
      3 C          63.0027   89.0303   12.3289 C.ar    1  UNL1        0.1332
      4 N          62.2208   88.6394   11.1100 N.ar    1  UNL1       -0.2170
      5 C          62.0297   87.1901   10.7743 C.ar    1  UNL1        0.1379
      6 C          62.6205   86.1315   11.6576 C.ar    1  UNL1        0.0950
      7 C          63.4024   86.5223   12.8766 C.ar    1  UNL1        0.2647
      8 O          63.9933   85.4636   13.7599 O.2     1  UNL1       -0.2668
      9 N          61.2477   86.7992    9.5554 N.pl3   1  UNL1       -0.2879
     10 C          61.8553   85.8804    8.5373 C.3     1  UNL1        0.1242
     11 C          61.0734   85.4896    7.3183 C.3     1  UNL1        0.1636
     12 O          59.6839   86.0176    7.1175 O.3     1  UNL1       -0.3501
     13 C          59.0763   86.9364    8.1356 C.3     1  UNL1        0.1636
     14 C          59.8582   87.3272    9.3545 C.3     1  UNL1        0.1242
     15 C          63.1938   90.4797   12.6646 C.3     1  UNL1        0.1491
     16 C          63.9651   91.3694   11.7354 C.2     1  UNL1        0.2338
     17 O          63.5034   91.5566   10.3205 O.2     1  UNL1       -0.2743
     18 N          65.1983   92.0719   12.2210 N.am    1  UNL1       -0.2835
     19 H          65.5014   91.9490   13.1496 H       1  UNL1        0.1549
     20 C          65.9697   92.9615   11.2917 C.ar    1  UNL1        0.0513
     21 C          65.7290   94.4421   11.2987 C.ar    1  UNL1        0.0170
     22 C          66.5004   95.3317   10.3695 C.ar    1  UNL1        0.0318
     23 C          67.5125   94.7408    9.4333 C.ar    1  UNL1        0.1507
     24 F          68.2839   95.6305    8.5040 F       1  UNL1       -0.2033
     25 C          67.7532   93.2603    9.4263 C.ar    1  UNL1        0.0863
     26 CL         68.7653   92.6694    8.4901 Cl      1  UNL1       -0.0799
     27 C          66.9818   92.3706   10.3556 C.ar    1  UNL1        0.0283
@<TRIPOS>BOND
     1     1     2    1
     2     2     3   ar
     3     3    15    1
     4    15    16    1
     5    16    17    2
     6    16    18   am
     7    18    20    1
     8    20    21   ar
     9    21    22   ar
    10    22    23   ar
    11    23    24    1
    12    23    25   ar
    13    25    26    1
    14    25    27   ar
    15     3     4   ar
    16     4     5   ar
    17     5     9    1
    18     9    10    1
    19    10    11    1
    20    11    12    1
    21    12    13    1
    22    13    14    1
    23     5     6   ar
    24     6     7   ar
    25     7     8    2
    26     7     2   ar
    27    27    20   ar
    28    14     9    1
    29    18    19    1
@<TRIPOS>MOLECULE
*****
 27 29 0 0 0
SMALL
GASTEIGER

@<TRIPOS>ATOM
      1 C          63.1751   90.1203   15.2037 C.3     1  UNL1        0.1347
      2 N          63.9670   90.8871   14.1864 N.ar    1  UNL1       -0.2816
      3 C          63.7165   90.6717   12.7232 C.ar    1  UNL1        0.1332
      4 N          64.5084   91.4385   11.7059 N.ar    1  UNL1       -0.2170
      5 C          65.5507   92.4207   12.1517 C.ar    1  UNL1        0.1379
      6 C          65.8012   92.6361   13.6149 C.ar    1  UNL1        0.0950
      7 C          65.0093   91.8693   14.6322 C.ar    1  UNL1        0.2647
      8 O          65.2598   92.0848   16.0954 O.2     1  UNL1       -0.2668
      9 N          66.3426   93.1876   11.1344 N.pl3   1  UNL1       -0.2879
     10 C          67.3600   92.4814   10.2883 C.3     1  UNL1        0.1242
     11 C          68.1519   93.2482    9.2709 C.3     1  UNL1        0.1636
     12 O          67.9263   94.7212    9.0998 O.3     1  UNL1       -0.3501
     13 C          66.9088   95.4274    9.9459 C.3     1  UNL1        0.1636
     14 C          66.1170   94.6606   10.9633 C.3     1  UNL1        0.1242
     15 C          62.6742   89.6895   12.2774 C.3     1  UNL1        0.1491
     16 C          62.9672   88.2188   12.3089 C.2     1  UNL1        0.2338
     17 O          63.9538   87.6717   13.2976 O.2     1  UNL1       -0.2743
     18 N          62.2737   87.2951   11.3519 N.am    1  UNL1       -0.2835
     19 H          61.6262   87.6541   10.7030 H       1  UNL1        0.1549
     20 C          62.5668   85.8243   11.3835 C.ar    1  UNL1        0.0513
     21 C          62.9773   85.1142   10.1276 C.ar    1  UNL1        0.0170
     22 C          63.2704   83.6435   10.1592 C.ar    1  UNL1        0.0318
     23 C          63.1530   82.8828   11.4467 C.ar    1  UNL1        0.1507
     24 F          63.4460   81.4121   11.4783 F       1  UNL1       -0.2033
     25 C          62.7424   83.5929   12.7026 C.ar    1  UNL1        0.0863
     26 CL         62.6249   82.8323   13.9900 Cl      1  UNL1       -0.0799
     27 C          62.4493   85.0637   12.6709 C.ar    1  UNL1        0.0283
@<TRIPOS>BOND
     1     1     2    1
     2     2     3   ar
     3     3    15    1
     4    15    16    1
     5    16    17    2
     6    16    18   am
     7    18    20    1
     8    20    21   ar
     9    21    22   ar
    10    22    23   ar
    11    23    24    1
    12    23    25   ar
    13    25    26    1
    14    25    27   ar
    15     3     4   ar
    16     4     5   ar
    17     5     9    1
    18     9    10    1
    19    10    11    1
    20    11    12    1
    21    12    13    1
    22    13    14    1
    23     5     6   ar
    24     6     7   ar
    25     7     8    2
    26     7     2   ar
    27    27    20   ar
    28    14     9    1
    29    18    19    1
@<TRIPOS>MOLECULE
*****
 27 29 0 0 0
SMALL
GASTEIGER

@<TRIPOS>ATOM
      1 C          64.1440   90.5719   16.1088 C.3     1  UNL1        0.1347
      2 N          64.7593   91.2407   14.9155 N.ar    1  UNL1       -0.2816
      3 C          64.4350   90.7557   13.5337 C.ar    1  UNL1        0.1332
      4 N          65.0503   91.4245   12.3403 N.ar    1  UNL1       -0.2170
      5 C          65.9899   92.5784   12.5288 C.ar    1  UNL1        0.1379
      6 C          66.3143   93.0634   13.9106 C.ar    1  UNL1        0.0950
      7 C          65.6990   92.3946   15.1040 C.ar    1  UNL1        0.2647
      8 O          66.0235   92.8796   16.4858 O.2     1  UNL1       -0.2668
      9 N          66.6052   93.2472   11.3354 N.pl3   1  UNL1       -0.2879
     10 C          66.3532   94.7034   11.0790 C.3     1  UNL1        0.1242
     11 C          66.9685   95.3723    9.8856 C.3     1  UNL1        0.1636
     12 O          67.8358   94.5849    8.9488 O.3     1  UNL1       -0.3501
     13 C          68.0878   93.1286    9.2052 C.3     1  UNL1        0.1636
     14 C          67.4725   92.4598   10.3986 C.3     1  UNL1        0.1242
     15 C          63.4952   89.6018   13.3451 C.3     1  UNL1        0.1491
     16 C          62.5857   89.5623   12.1530 C.2     1  UNL1        0.2338
     17 O          61.7401   90.7542   11.8150 O.2     1  UNL1       -0.2743
     18 N          62.5217   88.3308   11.2989 N.am    1  UNL1       -0.2835
     19 H          63.0767   87.5485   11.5207 H       1  UNL1        0.1549
     20 C          61.6122   88.2913   10.1068 C.ar    1  UNL1        0.0513
     21 C          60.9485   89.5483    9.6279 C.ar    1  UNL1        0.0170
     22 C          60.0389   89.5089    8.4358 C.ar    1  UNL1        0.0318
     23 C          59.7931   88.2123    7.7225 C.ar    1  UNL1        0.1507
     24 F          58.8836   88.1728    6.5304 F       1  UNL1       -0.2033
     25 C          60.4568   86.9553    8.2015 C.ar    1  UNL1        0.0863
     26 CL         60.2110   85.6588    7.4883 Cl      1  UNL1       -0.0799
     27 C          61.3664   86.9948    9.3936 C.ar    1  UNL1        0.0283
@<TRIPOS>BOND
     1     1     2    1
     2     2     3   ar
     3     3    15    1
     4    15    16    1
     5    16    17    2
     6    16    18   am
     7    18    20    1
     8    20    21   ar
     9    21    22   ar
    10    22    23   ar
    11    23    24    1
    12    23    25   ar
    13    25    26    1
    14    25    27   ar
    15     3     4   ar
    16     4     5   ar
    17     5     9    1
    18     9    10    1
    19    10    11    1
    20    11    12    1
    21    12    13    1
    22    13    14    1
    23     5     6   ar
    24     6     7   ar
    25     7     8    2
    26     7     2   ar
    27    27    20   ar
    28    14     9    1
    29    18    19    1
@<TRIPOS>MOLECULE
*****
 27 29 0 0 0
SMALL
GASTEIGER

@<TRIPOS>ATOM
      1 C          61.4455   89.5444   12.5073 C.3     1  UNL1        0.1347
      2 N          62.5803   90.3984   12.0248 N.ar    1  UNL1       -0.2816
      3 C          63.7115   90.7356   12.9503 C.ar    1  UNL1        0.1332
      4 N          64.8463   91.5895   12.4678 N.ar    1  UNL1       -0.2170
      5 C          64.8500   92.1063   11.0597 C.ar    1  UNL1        0.1379
      6 C          63.7188   91.7692   10.1341 C.ar    1  UNL1        0.0950
      7 C          62.5840   90.9152   10.6167 C.ar    1  UNL1        0.2647
      8 O          61.4528   90.5781    9.6910 O.2     1  UNL1       -0.2668
      9 N          65.9848   92.9603   10.5771 N.pl3   1  UNL1       -0.2879
     10 C          67.2221   92.3196   10.0217 C.3     1  UNL1        0.1242
     11 C          68.3570   93.1736    9.5392 C.3     1  UNL1        0.1636
     12 O          68.2545   94.6683    9.6120 O.3     1  UNL1       -0.3501
     13 C          67.0173   95.3090   10.1675 C.3     1  UNL1        0.1636
     14 C          65.8824   94.4550   10.6500 C.3     1  UNL1        0.1242
     15 C          63.7078   90.2187   14.3585 C.3     1  UNL1        0.1491
     16 C          63.6896   88.7410   14.6151 C.2     1  UNL1        0.2338
     17 O          63.4074   88.2225   15.9940 O.2     1  UNL1       -0.2743
     18 N          63.9536   87.7816   13.4926 N.am    1  UNL1       -0.2835
     19 H          64.1388   88.1218   12.5875 H       1  UNL1        0.1549
     20 C          63.9353   86.3038   13.7491 C.ar    1  UNL1        0.0513
     21 C          64.6144   85.7451   14.9643 C.ar    1  UNL1        0.0170
     22 C          64.5961   84.2673   15.2208 C.ar    1  UNL1        0.0318
     23 C          63.8988   83.3482   14.2621 C.ar    1  UNL1        0.1507
     24 F          63.8806   81.8704   14.5186 F       1  UNL1       -0.2033
     25 C          63.2197   83.9069   13.0469 C.ar    1  UNL1        0.0863
     26 CL         62.5225   82.9879   12.0882 Cl      1  UNL1       -0.0799
     27 C          63.2380   85.3848   12.7904 C.ar    1  UNL1        0.0283
@<TRIPOS>BOND
     1     1     2    1
     2     2     3   ar
     3     3    15    1
     4    15    16    1
     5    16    17    2
     6    16    18   am
     7    18    20    1
     8    20    21   ar
     9    21    22   ar
    10    22    23   ar
    11    23    24    1
    12    23    25   ar
    13    25    26    1
    14    25    27   ar
    15     3     4   ar
    16     4     5   ar
    17     5     9    1
    18     9    10    1
    19    10    11    1
    20    11    12    1
    21    12    13    1
    22    13    14    1
    23     5     6   ar
    24     6     7   ar
    25     7     8    2
    26     7     2   ar
    27    27    20   ar
    28    14     9    1
    29    18    19    1
