@<TRIPOS>MOLECULE
*****
 36 39 0 0 0
SMALL
GASTEIGER

@<TRIPOS>ATOM
      1 C          63.7877   89.4538   13.1327 C.ar    1  UNL1        0.0957
      2 C          63.8545   89.3476   14.6274 C.ar    1  UNL1        0.1191
      3 N          64.5442   90.4144   15.4250 N.ar    1  UNL1       -0.2223
      4 C          65.1672   91.5875   14.7279 C.ar    1  UNL1        0.1784
      5 N          65.9086   92.7845   15.2450 N.ar    1  UNL1       -0.2236
      6 C          66.3000   93.6305   14.0698 C.ar    1  UNL1        0.1066
      7 C          65.8006   92.9563   12.8264 C.ar    1  UNL1        0.0910
      8 C          65.1004   91.6936   13.2332 C.ar    1  UNL1        0.0988
      9 N          64.4107   90.6268   12.4356 N.ar    1  UNL1       -0.3481
     10 H          64.3669   90.6965   11.4545 H       1  UNL1        0.1661
     11 C          59.3888   88.3459    7.6505 C.3     1  UNL1        0.0311
     12 C          60.3210   88.4344    8.8223 C.ar    1  UNL1       -0.0204
     13 C          60.7832   89.7742    9.3135 C.ar    1  UNL1       -0.0041
     14 C          61.7153   89.8627   10.4854 C.ar    1  UNL1        0.0028
     15 C          62.1853   88.6114   11.1661 C.ar    1  UNL1        0.0381
     16 C          63.0980   88.3870   12.3351 C.ar    1  UNL1        0.1193
     17 N          63.1999   86.9084   12.5664 N.ar    1  UNL1       -0.1678
     18 N          62.3502   86.2191   11.5404 N.ar    1  UNL1       -0.2508
     19 C          61.7231   87.2716   10.6749 C.ar    1  UNL1        0.0791
     20 C          60.7909   87.1831    9.5031 C.ar    1  UNL1        0.0145
     21 C          62.1607   84.7374   11.4038 C.3     1  UNL1        0.1289
     22 C          63.2295   83.7978   11.8779 C.3     1  UNL1        0.0437
     23 C          62.8588   82.4388   12.3934 C.3     1  UNL1        0.0742
     24 N          62.2686   82.2921   13.7646 N.3     1  UNL1       -0.2703
     25 C          61.3495   81.1459   14.0668 C.3     1  UNL1        0.0897
     26 C          62.5976   83.2916   14.8336 C.3     1  UNL1        0.0897
     27 C          65.9713   93.4568   11.4228 C.2     1  UNL1        0.2488
     28 O          65.0197   93.0185   10.3492 O.2     1  UNL1       -0.2700
     29 N          67.0935   94.3958   11.0927 N.am    1  UNL1       -0.3015
     30 H          67.7181   94.6835   11.7972 H       1  UNL1        0.1497
     31 C          67.2642   94.8964    9.6889 C.3     1  UNL1        0.0841
     32 C          66.4623   96.1181   10.0271 C.3     1  UNL1        0.0222
     33 C          68.0661   93.6747    9.3507 C.3     1  UNL1        0.0222
     34 C          67.4349   95.3970    8.2853 C.3     1  UNL1        0.1549
     35 O          67.9150   96.7969    8.0416 O.3     1  UNL1       -0.3803
     36 H          67.2491   97.4269    8.3588 H       1  UNL1        0.2105
@<TRIPOS>BOND
     1    11    12    1
     2    12    13   ar
     3    13    14   ar
     4    14    15   ar
     5    15    16   ar
     6    16     1    1
     7     1     2   ar
     8     2     3   ar
     9     3     4   ar
    10     4     5   ar
    11     5     6   ar
    12     6     7   ar
    13     7    27    1
    14    27    28    2
    15    27    29   am
    16    29    31    1
    17    31    32    1
    18    31    33    1
    19    31    34    1
    20    34    35    1
    21     7     8   ar
    22     8     9   ar
    23    16    17   ar
    24    17    18   ar
    25    18    21    1
    26    21    22    1
    27    22    23    1
    28    23    24    1
    29    24    25    1
    30    24    26    1
    31    18    19   ar
    32    19    20   ar
    33    20    12   ar
    34    19    15   ar
    35     9     1   ar
    36     8     4    1
    37    29    30    1
    38    35    36    1
    39     9    10    1
@<TRIPOS>MOLECULE
*****
 36 39 0 0 0
SMALL
GASTEIGER

@<TRIPOS>ATOM
      1 C          63.8668   88.9028   13.6429 C.ar    1  UNL1        0.0957
      2 C          63.8276   88.9478   15.1417 C.ar    1  UNL1        0.1191
      3 N          64.3779   90.1375   15.8710 N.ar    1  UNL1       -0.2223
      4 C          64.9675   91.2821   15.1015 C.ar    1  UNL1        0.1784
      5 N          65.5813   92.5777   15.5426 N.ar    1  UNL1       -0.2236
      6 C          65.9999   93.3335   14.3163 C.ar    1  UNL1        0.1066
      7 C          65.6449   92.5049   13.1174 C.ar    1  UNL1        0.0910
      8 C          65.0068   91.2371   13.6027 C.ar    1  UNL1        0.0988
      9 N          64.4564   90.0474   12.8734 N.ar    1  UNL1       -0.3481
     10 H          64.4822   90.0179   11.8897 H       1  UNL1        0.1661
     11 C          63.7253   81.7889   13.5774 C.3     1  UNL1        0.0311
     12 C          63.6688   83.2842   13.4736 C.ar    1  UNL1       -0.0204
     13 C          64.4071   84.1333   14.4654 C.ar    1  UNL1       -0.0041
     14 C          64.3506   85.6287   14.3615 C.ar    1  UNL1        0.0028
     15 C          63.5558   86.2749   13.2658 C.ar    1  UNL1        0.0381
     16 C          63.3165   87.7132   12.9136 C.ar    1  UNL1        0.1193
     17 N          62.4302   87.7529   11.7041 N.ar    1  UNL1       -0.1678
     18 N          62.1218   86.3392   11.3087 N.ar    1  UNL1       -0.2508
     19 C          62.8175   85.4257   12.2740 C.ar    1  UNL1        0.0791
     20 C          62.8739   83.9304   12.3779 C.ar    1  UNL1        0.0145
     21 C          61.2677   85.9137   10.1514 C.3     1  UNL1        0.1289
     22 C          61.3397   86.6596    8.8520 C.3     1  UNL1        0.0437
     23 C          60.0886   87.2059    8.2304 C.3     1  UNL1        0.0742
     24 N          59.8699   88.6884    8.1637 N.3     1  UNL1       -0.2703
     25 C          59.3815   89.3179    6.8929 C.3     1  UNL1        0.0897
     26 C          60.1396   89.5413    9.3678 C.3     1  UNL1        0.0897
     27 C          65.8856   92.8786   11.6849 C.2     1  UNL1        0.2488
     28 O          64.9973   92.3307   10.6074 O.2     1  UNL1       -0.2700
     29 N          67.0146   93.8001   11.3296 N.am    1  UNL1       -0.3015
     30 H          67.5976   94.1596   12.0368 H       1  UNL1        0.1497
     31 C          67.2553   94.1737    9.8969 C.3     1  UNL1        0.0841
     32 C          68.0726   92.9299    9.7098 C.3     1  UNL1        0.0222
     33 C          66.4381   95.4176   10.0840 C.3     1  UNL1        0.0222
     34 C          67.4960   94.5473    8.4643 C.3     1  UNL1        0.1549
     35 O          67.8805   95.9533    8.1104 O.3     1  UNL1       -0.3803
     36 H          67.1434   96.5507    8.3123 H       1  UNL1        0.2105
@<TRIPOS>BOND
     1    11    12    1
     2    12    13   ar
     3    13    14   ar
     4    14    15   ar
     5    15    16   ar
     6    16     1    1
     7     1     2   ar
     8     2     3   ar
     9     3     4   ar
    10     4     5   ar
    11     5     6   ar
    12     6     7   ar
    13     7    27    1
    14    27    28    2
    15    27    29   am
    16    29    31    1
    17    31    32    1
    18    31    33    1
    19    31    34    1
    20    34    35    1
    21     7     8   ar
    22     8     9   ar
    23    16    17   ar
    24    17    18   ar
    25    18    21    1
    26    21    22    1
    27    22    23    1
    28    23    24    1
    29    24    25    1
    30    24    26    1
    31    18    19   ar
    32    19    20   ar
    33    20    12   ar
    34    19    15   ar
    35     9     1   ar
    36     8     4    1
    37    29    30    1
    38    35    36    1
    39     9    10    1
@<TRIPOS>MOLECULE
*****
 36 39 0 0 0
SMALL
GASTEIGER

@<TRIPOS>ATOM
      1 C          63.2361   90.6510   10.8232 C.ar    1  UNL1        0.0957
      2 C          62.2182   91.0399    9.7924 C.ar    1  UNL1        0.1191
      3 N          61.1981   90.0414    9.3317 N.ar    1  UNL1       -0.2223
      4 C          61.1958   88.6539    9.9017 C.ar    1  UNL1        0.1784
      5 N          60.3198   87.4641    9.6432 N.ar    1  UNL1       -0.2236
      6 C          60.7964   86.3397   10.5143 C.ar    1  UNL1        0.1066
      7 C          61.9668   86.8347   11.3111 C.ar    1  UNL1        0.0910
      8 C          62.2137   88.2650   10.9325 C.ar    1  UNL1        0.0988
      9 N          63.2339   89.2635   11.3933 N.ar    1  UNL1       -0.3481
     10 H          63.9019   89.0082   12.0698 H       1  UNL1        0.1661
     11 C          67.1057   92.7130   16.4273 C.3     1  UNL1        0.0311
     12 C          66.3534   92.3866   15.1713 C.ar    1  UNL1       -0.0204
     13 C          65.3805   91.2451   15.1550 C.ar    1  UNL1       -0.0041
     14 C          64.6282   90.9187   13.8990 C.ar    1  UNL1        0.0028
     15 C          64.8489   91.7338   12.6594 C.ar    1  UNL1        0.0381
     16 C          64.2563   91.6494   11.2840 C.ar    1  UNL1        0.1193
     17 N          64.8630   92.7388   10.4502 N.ar    1  UNL1       -0.1678
     18 N          65.8306   93.4965   11.3103 N.ar    1  UNL1       -0.2508
     19 C          65.8218   92.8753   12.6757 C.ar    1  UNL1        0.0791
     20 C          66.5741   93.2017   13.9317 C.ar    1  UNL1        0.0145
     21 C          66.6611   94.6693   10.8806 C.3     1  UNL1        0.1289
     22 C          67.1784   94.7471    9.4748 C.3     1  UNL1        0.0437
     23 C          67.0857   96.0351    8.7116 C.3     1  UNL1        0.0742
     24 N          65.7442   96.5809    8.3214 N.3     1  UNL1       -0.2703
     25 C          65.4365   96.8543    6.8790 C.3     1  UNL1        0.0897
     26 C          64.7103   96.8532    9.3735 C.3     1  UNL1        0.0897
     27 C          62.7525   86.0391   12.3110 C.2     1  UNL1        0.2488
     28 O          63.6814   86.7358   13.2606 O.2     1  UNL1       -0.2700
     29 N          62.6092   84.5468   12.3612 N.am    1  UNL1       -0.3015
     30 H          61.9996   84.0895   11.7379 H       1  UNL1        0.1497
     31 C          63.3949   83.7512   13.3611 C.3     1  UNL1        0.0841
     32 C          64.3928   83.4000   12.2976 C.3     1  UNL1        0.0222
     33 C          62.3971   84.1023   14.4246 C.3     1  UNL1        0.0222
     34 C          64.1806   82.9556   14.3610 C.3     1  UNL1        0.1549
     35 O          64.6463   83.6001   15.6329 O.3     1  UNL1       -0.3803
     36 H          65.2968   84.2895   15.4267 H       1  UNL1        0.2105
@<TRIPOS>BOND
     1    11    12    1
     2    12    13   ar
     3    13    14   ar
     4    14    15   ar
     5    15    16   ar
     6    16     1    1
     7     1     2   ar
     8     2     3   ar
     9     3     4   ar
    10     4     5   ar
    11     5     6   ar
    12     6     7   ar
    13     7    27    1
    14    27    28    2
    15    27    29   am
    16    29    31    1
    17    31    32    1
    18    31    33    1
    19    31    34    1
    20    34    35    1
    21     7     8   ar
    22     8     9   ar
    23    16    17   ar
    24    17    18   ar
    25    18    21    1
    26    21    22    1
    27    22    23    1
    28    23    24    1
    29    24    25    1
    30    24    26    1
    31    18    19   ar
    32    19    20   ar
    33    20    12   ar
    34    19    15   ar
    35     9     1   ar
    36     8     4    1
    37    29    30    1
    38    35    36    1
    39     9    10    1
@<TRIPOS>MOLECULE
*****
 36 39 0 0 0
SMALL
GASTEIGER

@<TRIPOS>ATOM
      1 C          62.4368   87.5492   11.5085 C.ar    1  UNL1        0.0957
      2 C          62.8922   88.8766   12.0380 C.ar    1  UNL1        0.1191
      3 N          63.6714   88.9464   13.3178 N.ar    1  UNL1       -0.2223
      4 C          63.9952   87.6886   14.0682 C.ar    1  UNL1        0.1784
      5 N          64.7416   87.4464   15.3465 N.ar    1  UNL1       -0.2236
      6 C          64.7476   85.9693   15.6071 C.ar    1  UNL1        0.1066
      7 C          64.0049   85.2985   14.4898 C.ar    1  UNL1        0.0910
      8 C          63.5399   86.3611   13.5387 C.ar    1  UNL1        0.0988
      9 N          62.7607   86.2914   12.2588 N.ar    1  UNL1       -0.3481
     10 H          62.4618   85.4201   11.9113 H       1  UNL1        0.1661
     11 C          61.7887   83.9802    5.3868 C.3     1  UNL1        0.0311
     12 C          61.8151   84.8167    6.6316 C.ar    1  UNL1       -0.0204
     13 C          62.8113   84.5207    7.7132 C.ar    1  UNL1       -0.0041
     14 C          62.8377   85.3572    8.9580 C.ar    1  UNL1        0.0028
     15 C          61.8678   86.4897    9.1213 C.ar    1  UNL1        0.0381
     16 C          61.6576   87.4794   10.2286 C.ar    1  UNL1        0.1193
     17 N          60.5314   88.3871    9.8315 N.ar    1  UNL1       -0.1678
     18 N          60.0456   87.9584    8.4786 N.ar    1  UNL1       -0.2508
     19 C          60.8716   86.7857    8.0397 C.ar    1  UNL1        0.0791
     20 C          60.8452   85.9492    6.7949 C.ar    1  UNL1        0.0145
     21 C          58.9297   88.5913    7.7012 C.3     1  UNL1        0.1289
     22 C          59.1454   88.9942    6.2725 C.3     1  UNL1        0.0437
     23 C          59.5979   90.3865    5.9460 C.3     1  UNL1        0.0742
     24 N          58.7280   91.2823    5.1149 N.3     1  UNL1       -0.2703
     25 C          59.3475   92.3554    4.2696 C.3     1  UNL1        0.0897
     26 C          57.2385   91.1050    5.1292 C.3     1  UNL1        0.0897
     27 C          63.7686   83.8240   14.3485 C.2     1  UNL1        0.2488
     28 O          64.4487   82.8629   15.2780 O.2     1  UNL1       -0.2700
     29 N          62.8523   83.3105   13.2776 N.am    1  UNL1       -0.3015
     30 H          62.4060   83.9412   12.6676 H       1  UNL1        0.1497
     31 C          62.6161   81.8359   13.1363 C.3     1  UNL1        0.0841
     32 C          63.5753   81.7927   11.9839 C.3     1  UNL1        0.0222
     33 C          61.6570   81.8790   14.2888 C.3     1  UNL1        0.0222
     34 C          62.3799   80.3614   12.9950 C.3     1  UNL1        0.1549
     35 O          62.6468   79.6813   11.6850 O.3     1  UNL1       -0.3803
     36 H          62.0247   80.0101   11.0173 H       1  UNL1        0.2105
@<TRIPOS>BOND
     1    11    12    1
     2    12    13   ar
     3    13    14   ar
     4    14    15   ar
     5    15    16   ar
     6    16     1    1
     7     1     2   ar
     8     2     3   ar
     9     3     4   ar
    10     4     5   ar
    11     5     6   ar
    12     6     7   ar
    13     7    27    1
    14    27    28    2
    15    27    29   am
    16    29    31    1
    17    31    32    1
    18    31    33    1
    19    31    34    1
    20    34    35    1
    21     7     8   ar
    22     8     9   ar
    23    16    17   ar
    24    17    18   ar
    25    18    21    1
    26    21    22    1
    27    22    23    1
    28    23    24    1
    29    24    25    1
    30    24    26    1
    31    18    19   ar
    32    19    20   ar
    33    20    12   ar
    34    19    15   ar
    35     9     1   ar
    36     8     4    1
    37    29    30    1
    38    35    36    1
    39     9    10    1
@<TRIPOS>MOLECULE
*****
 36 39 0 0 0
SMALL
GASTEIGER

@<TRIPOS>ATOM
      1 C          62.9817   90.3924   10.7487 C.ar    1  UNL1        0.0957
      2 C          61.9639   90.7332    9.7009 C.ar    1  UNL1        0.1191
      3 N          61.0019   89.6871    9.2213 N.ar    1  UNL1       -0.2223
      4 C          61.0575   88.3000    9.7896 C.ar    1  UNL1        0.1784
      5 N          60.2453   87.0693    9.5145 N.ar    1  UNL1       -0.2236
      6 C          60.7611   85.9678   10.3923 C.ar    1  UNL1        0.1066
      7 C          61.8920   86.5177   11.2099 C.ar    1  UNL1        0.0910
      8 C          62.0752   87.9592   10.8374 C.ar    1  UNL1        0.0988
      9 N          63.0373   89.0053   11.3169 N.ar    1  UNL1       -0.3481
     10 H          63.7053   88.7815   12.0047 H       1  UNL1        0.1661
     11 C          66.7819   92.5294   16.3721 C.3     1  UNL1        0.0311
     12 C          66.0366   92.1930   15.1146 C.ar    1  UNL1       -0.0204
     13 C          65.1356   90.9944   15.0747 C.ar    1  UNL1       -0.0041
     14 C          64.3903   90.6580   13.8171 C.ar    1  UNL1        0.0028
     15 C          64.5459   91.5202   12.5996 C.ar    1  UNL1        0.0381
     16 C          63.9438   91.4385   11.2282 C.ar    1  UNL1        0.1193
     17 N          64.4726   92.5866   10.4206 N.ar    1  UNL1       -0.1678
     18 N          65.4016   93.3779   11.2929 N.ar    1  UNL1       -0.2508
     19 C          65.4469   92.7187   12.6396 C.ar    1  UNL1        0.0791
     20 C          66.1922   93.0551   13.8971 C.ar    1  UNL1        0.0145
     21 C          66.1533   94.6116   10.8894 C.3     1  UNL1        0.1289
     22 C          66.8135   94.6812    9.5443 C.3     1  UNL1        0.0437
     23 C          68.2331   94.2254    9.3810 C.3     1  UNL1        0.0742
     24 N          68.5699   92.7677    9.4887 N.3     1  UNL1       -0.2703
     25 C          68.4921   92.0761   10.8174 C.3     1  UNL1        0.0897
     26 C          68.9845   92.0015    8.2675 C.3     1  UNL1        0.0897
     27 C          62.6982   85.7594   12.2223 C.2     1  UNL1        0.2488
     28 O          63.5993   86.4966   13.1682 O.2     1  UNL1       -0.2700
     29 N          62.6034   84.2639   12.2887 N.am    1  UNL1       -0.3015
     30 H          62.0120   83.7800   11.6679 H       1  UNL1        0.1497
     31 C          63.4096   83.5055   13.3012 C.3     1  UNL1        0.0841
     32 C          62.3344   83.7271   14.3234 C.3     1  UNL1        0.0222
     33 C          64.4848   83.2839   12.2790 C.3     1  UNL1        0.0222
     34 C          64.2158   82.7472   14.3136 C.3     1  UNL1        0.1549
     35 O          64.4846   83.3487   15.6612 O.3     1  UNL1       -0.3803
     36 H          65.0475   84.1320   15.5591 H       1  UNL1        0.2105
@<TRIPOS>BOND
     1    11    12    1
     2    12    13   ar
     3    13    14   ar
     4    14    15   ar
     5    15    16   ar
     6    16     1    1
     7     1     2   ar
     8     2     3   ar
     9     3     4   ar
    10     4     5   ar
    11     5     6   ar
    12     6     7   ar
    13     7    27    1
    14    27    28    2
    15    27    29   am
    16    29    31    1
    17    31    32    1
    18    31    33    1
    19    31    34    1
    20    34    35    1
    21     7     8   ar
    22     8     9   ar
    23    16    17   ar
    24    17    18   ar
    25    18    21    1
    26    21    22    1
    27    22    23    1
    28    23    24    1
    29    24    25    1
    30    24    26    1
    31    18    19   ar
    32    19    20   ar
    33    20    12   ar
    34    19    15   ar
    35     9     1   ar
    36     8     4    1
    37    29    30    1
    38    35    36    1
    39     9    10    1
@<TRIPOS>MOLECULE
*****
 36 39 0 0 0
SMALL
GASTEIGER

@<TRIPOS>ATOM
      1 C          63.8754   89.7077   13.0182 C.ar    1  UNL1        0.0957
      2 C          64.0441   89.4870   14.4923 C.ar    1  UNL1        0.1191
      3 N          64.7964   90.4871   15.3192 N.ar    1  UNL1       -0.2223
      4 C          65.3800   91.7080   14.6720 C.ar    1  UNL1        0.1784
      5 N          66.1657   92.8593   15.2262 N.ar    1  UNL1       -0.2236
      6 C          66.4826   93.7916   14.0947 C.ar    1  UNL1        0.1066
      7 C          65.8928   93.2165   12.8412 C.ar    1  UNL1        0.0910
      8 C          65.2114   91.9287   13.1980 C.ar    1  UNL1        0.0988
      9 N          64.4591   90.9286   12.3711 N.ar    1  UNL1       -0.3481
     10 H          64.3484   91.0734   11.4036 H       1  UNL1        0.1661
     11 C          59.1918   89.0374    7.7035 C.3     1  UNL1        0.0311
     12 C          60.1813   89.0329    8.8308 C.ar    1  UNL1       -0.0204
     13 C          60.6980   90.3293    9.3804 C.ar    1  UNL1       -0.0041
     14 C          61.6876   90.3248   10.5077 C.ar    1  UNL1        0.0028
     15 C          62.1604   89.0238   11.0853 C.ar    1  UNL1        0.0381
     16 C          63.1231   88.7075   12.1913 C.ar    1  UNL1        0.1193
     17 N          63.2014   87.2156   12.3252 N.ar    1  UNL1       -0.1678
     18 N          62.2871   86.6097   11.3020 N.ar    1  UNL1       -0.2508
     19 C          61.6438   87.7273   10.5357 C.ar    1  UNL1        0.0791
     20 C          60.6542   87.7319    9.4084 C.ar    1  UNL1        0.0145
     21 C          62.0566   85.1438   11.0834 C.3     1  UNL1        0.1289
     22 C          62.6796   84.4540    9.9061 C.3     1  UNL1        0.0437
     23 C          63.0014   85.2322    8.6648 C.3     1  UNL1        0.0742
     24 N          62.1796   85.0400    7.4248 N.3     1  UNL1       -0.2703
     25 C          62.7789   84.3694    6.2244 C.3     1  UNL1        0.0897
     26 C          60.7585   85.5183    7.3853 C.3     1  UNL1        0.0897
     27 C          65.9708   93.8226   11.4714 C.2     1  UNL1        0.2488
     28 O          65.1323   93.2692   10.3574 O.2     1  UNL1       -0.2700
     29 N          66.8871   94.9823   11.2154 N.am    1  UNL1       -0.3015
     30 H          67.4374   95.3455   11.9465 H       1  UNL1        0.1497
     31 C          66.9651   95.5885    9.8455 C.3     1  UNL1        0.0841
     32 C          66.0500   96.6938   10.2826 C.3     1  UNL1        0.0222
     33 C          67.8801   94.4832    9.4084 C.3     1  UNL1        0.0222
     34 C          67.0430   96.1946    8.4757 C.3     1  UNL1        0.1549
     35 O          66.1485   95.6924    7.3814 O.3     1  UNL1       -0.3803
     36 H          66.3832   94.7760    7.1669 H       1  UNL1        0.2105
@<TRIPOS>BOND
     1    11    12    1
     2    12    13   ar
     3    13    14   ar
     4    14    15   ar
     5    15    16   ar
     6    16     1    1
     7     1     2   ar
     8     2     3   ar
     9     3     4   ar
    10     4     5   ar
    11     5     6   ar
    12     6     7   ar
    13     7    27    1
    14    27    28    2
    15    27    29   am
    16    29    31    1
    17    31    32    1
    18    31    33    1
    19    31    34    1
    20    34    35    1
    21     7     8   ar
    22     8     9   ar
    23    16    17   ar
    24    17    18   ar
    25    18    21    1
    26    21    22    1
    27    22    23    1
    28    23    24    1
    29    24    25    1
    30    24    26    1
    31    18    19   ar
    32    19    20   ar
    33    20    12   ar
    34    19    15   ar
    35     9     1   ar
    36     8     4    1
    37    29    30    1
    38    35    36    1
    39     9    10    1
@<TRIPOS>MOLECULE
*****
 36 39 0 0 0
SMALL
GASTEIGER

@<TRIPOS>ATOM
      1 C          62.2710   89.0483   11.0359 C.ar    1  UNL1        0.0957
      2 C          62.5667   90.5046   11.2397 C.ar    1  UNL1        0.1191
      3 N          63.3750   90.9474   12.4231 N.ar    1  UNL1       -0.2223
      4 C          63.8877   89.9339   13.4028 C.ar    1  UNL1        0.1784
      5 N          64.7044   90.0705   14.6535 N.ar    1  UNL1       -0.2236
      6 C          64.9134   88.6986   15.2228 C.ar    1  UNL1        0.1066
      7 C          64.2260   87.7140   14.3239 C.ar    1  UNL1        0.0910
      8 C          63.5920   88.4775   13.1990 C.ar    1  UNL1        0.0988
      9 N          62.7837   88.0347   12.0156 N.ar    1  UNL1       -0.3481
     10 H          62.5896   87.0788   11.8819 H       1  UNL1        0.1661
     11 C          61.6221   83.9278    6.1377 C.3     1  UNL1        0.0311
     12 C          61.6439   85.0718    7.1076 C.ar    1  UNL1       -0.0204
     13 C          62.6800   85.1167    8.1914 C.ar    1  UNL1       -0.0041
     14 C          62.7018   86.2607    9.1613 C.ar    1  UNL1        0.0028
     15 C          61.6875   87.3599    9.0475 C.ar    1  UNL1        0.0381
     16 C          61.4627   88.6054    9.8525 C.ar    1  UNL1        0.1193
     17 N          60.2876   89.3304    9.2662 N.ar    1  UNL1       -0.1678
     18 N          59.7862   88.5330    8.0989 N.ar    1  UNL1       -0.2508
     19 C          60.6514   87.3150    7.9638 C.ar    1  UNL1        0.0791
     20 C          60.6296   86.1710    6.9938 C.ar    1  UNL1        0.0145
     21 C          58.6238   88.8905    7.2210 C.3     1  UNL1        0.1289
     22 C          58.8617   89.3665    5.8185 C.3     1  UNL1        0.0437
     23 C          59.4743   90.7143    5.5777 C.3     1  UNL1        0.0742
     24 N          58.7447   91.7334    4.7536 N.3     1  UNL1       -0.2703
     25 C          57.2466   91.7975    4.7942 C.3     1  UNL1        0.0897
     26 C          59.5131   92.6884    3.8890 C.3     1  UNL1        0.0897
     27 C          64.1805   86.2271   14.5160 C.2     1  UNL1        0.2488
     28 O          65.0378   85.5796   15.5628 O.2     1  UNL1       -0.2700
     29 N          63.2776   85.3877   13.6615 N.am    1  UNL1       -0.3015
     30 H          62.7149   85.8127   12.9745 H       1  UNL1        0.1497
     31 C          63.2322   83.9007   13.8537 C.3     1  UNL1        0.0841
     32 C          62.2730   84.0774   14.9934 C.3     1  UNL1        0.0222
     33 C          64.1913   83.7240   12.7141 C.3     1  UNL1        0.0222
     34 C          63.1867   82.4138   14.0460 C.3     1  UNL1        0.1549
     35 O          62.1008   81.7980   14.8776 O.3     1  UNL1       -0.3803
     36 H          62.2024   82.0781   15.8007 H       1  UNL1        0.2105
@<TRIPOS>BOND
     1    11    12    1
     2    12    13   ar
     3    13    14   ar
     4    14    15   ar
     5    15    16   ar
     6    16     1    1
     7     1     2   ar
     8     2     3   ar
     9     3     4   ar
    10     4     5   ar
    11     5     6   ar
    12     6     7   ar
    13     7    27    1
    14    27    28    2
    15    27    29   am
    16    29    31    1
    17    31    32    1
    18    31    33    1
    19    31    34    1
    20    34    35    1
    21     7     8   ar
    22     8     9   ar
    23    16    17   ar
    24    17    18   ar
    25    18    21    1
    26    21    22    1
    27    22    23    1
    28    23    24    1
    29    24    25    1
    30    24    26    1
    31    18    19   ar
    32    19    20   ar
    33    20    12   ar
    34    19    15   ar
    35     9     1   ar
    36     8     4    1
    37    29    30    1
    38    35    36    1
    39     9    10    1
@<TRIPOS>MOLECULE
*****
 36 39 0 0 0
SMALL
GASTEIGER

@<TRIPOS>ATOM
      1 C          62.2313   89.2538   11.1726 C.ar    1  UNL1        0.0957
      2 C          61.2270   89.9159   10.2765 C.ar    1  UNL1        0.1191
      3 N          60.5057   89.1121    9.2355 N.ar    1  UNL1       -0.2223
      4 C          60.7886   87.6462    9.0907 C.ar    1  UNL1        0.1784
      5 N          60.2375   86.6045    8.1626 N.ar    1  UNL1       -0.2236
      6 C          60.9013   85.2986    8.4852 C.ar    1  UNL1        0.1066
      7 C          61.8625   85.5332    9.6126 C.ar    1  UNL1        0.0910
      8 C          61.7929   86.9841    9.9868 C.ar    1  UNL1        0.0988
      9 N          62.5142   87.7879   11.0277 N.ar    1  UNL1       -0.3481
     10 H          63.1733   87.3533   11.6159 H       1  UNL1        0.1661
     11 C          66.8130   94.6173   12.1068 C.3     1  UNL1        0.0311
     12 C          65.8426   93.4747   12.0553 C.ar    1  UNL1       -0.0204
     13 C          65.3571   92.9620   10.7319 C.ar    1  UNL1       -0.0041
     14 C          64.3867   91.8194   10.6804 C.ar    1  UNL1        0.0028
     15 C          63.9017   91.1894   11.9523 C.ar    1  UNL1        0.0381
     16 C          62.9526   90.0576   12.2135 C.ar    1  UNL1        0.1193
     17 N          62.8514   89.8708   13.6984 N.ar    1  UNL1       -0.1678
     18 N          63.7381   90.8871   14.3549 N.ar    1  UNL1       -0.2508
     19 C          64.3872   91.7020   13.2757 C.ar    1  UNL1        0.0791
     20 C          65.3576   92.8447   13.3272 C.ar    1  UNL1        0.0145
     21 C          63.9401   91.0584   15.8313 C.3     1  UNL1        0.1289
     22 C          63.5520   89.9581   16.7741 C.3     1  UNL1        0.0437
     23 C          62.6960   88.8246   16.2921 C.3     1  UNL1        0.0742
     24 N          63.2197   87.4196   16.3320 N.3     1  UNL1       -0.2703
     25 C          64.1978   86.9541   15.2944 C.3     1  UNL1        0.0897
     26 C          62.7653   86.4801   17.4094 C.3     1  UNL1        0.0897
     27 C          62.7394   84.4985   10.2533 C.2     1  UNL1        0.2488
     28 O          63.8604   83.8781    9.4731 O.2     1  UNL1       -0.2700
     29 N          62.4954   84.0842   11.6741 N.am    1  UNL1       -0.3015
     30 H          61.7596   84.4913   12.1861 H       1  UNL1        0.1497
     31 C          63.3723   83.0495   12.3148 C.3     1  UNL1        0.0841
     32 C          62.5137   81.9638   11.7366 C.3     1  UNL1        0.0222
     33 C          64.2309   84.1351   12.8929 C.3     1  UNL1        0.0222
     34 C          64.2492   82.0148   12.9554 C.3     1  UNL1        0.1549
     35 O          63.7306   81.1976   14.1013 O.3     1  UNL1       -0.3803
     36 H          63.5752   81.7744   14.8655 H       1  UNL1        0.2105
@<TRIPOS>BOND
     1    11    12    1
     2    12    13   ar
     3    13    14   ar
     4    14    15   ar
     5    15    16   ar
     6    16     1    1
     7     1     2   ar
     8     2     3   ar
     9     3     4   ar
    10     4     5   ar
    11     5     6   ar
    12     6     7   ar
    13     7    27    1
    14    27    28    2
    15    27    29   am
    16    29    31    1
    17    31    32    1
    18    31    33    1
    19    31    34    1
    20    34    35    1
    21     7     8   ar
    22     8     9   ar
    23    16    17   ar
    24    17    18   ar
    25    18    21    1
    26    21    22    1
    27    22    23    1
    28    23    24    1
    29    24    25    1
    30    24    26    1
    31    18    19   ar
    32    19    20   ar
    33    20    12   ar
    34    19    15   ar
    35     9     1   ar
    36     8     4    1
    37    29    30    1
    38    35    36    1
    39     9    10    1
@<TRIPOS>MOLECULE
*****
 36 39 0 0 0
SMALL
GASTEIGER

@<TRIPOS>ATOM
      1 C          64.1159   89.3716   15.2680 C.ar    1  UNL1        0.0957
      2 C          63.4004   89.7460   16.5321 C.ar    1  UNL1        0.1191
      3 N          62.7245   88.6880   17.3529 N.ar    1  UNL1       -0.2223
      4 C          62.7641   87.2555   16.9097 C.ar    1  UNL1        0.1784
      5 N          62.1937   86.0037   17.5077 N.ar    1  UNL1       -0.2236
      6 C          62.5566   84.8556   16.6132 C.ar    1  UNL1        0.1066
      7 C          63.3514   85.3978   15.4624 C.ar    1  UNL1        0.0910
      8 C          63.4796   86.8811   15.6457 C.ar    1  UNL1        0.0988
      9 N          64.1555   87.9391   14.8248 N.ar    1  UNL1       -0.3481
     10 H          64.6251   87.6933   13.9952 H       1  UNL1        0.1661
     11 C          68.9325   94.6033   15.5142 C.3     1  UNL1        0.0311
     12 C          67.8988   93.5336   15.3213 C.ar    1  UNL1       -0.0204
     13 C          67.5014   92.6583   16.4728 C.ar    1  UNL1       -0.0041
     14 C          66.4678   91.5886   16.2799 C.ar    1  UNL1        0.0028
     15 C          65.8315   91.3942   14.9355 C.ar    1  UNL1        0.0381
     16 C          64.7917   90.4296   14.4472 C.ar    1  UNL1        0.1193
     17 N          64.5465   90.7087   12.9939 N.ar    1  UNL1       -0.1678
     18 N          65.4347   91.8459   12.5841 N.ar    1  UNL1       -0.2508
     19 C          66.2289   92.2695   13.7841 C.ar    1  UNL1        0.0791
     20 C          67.2626   93.3392   13.9770 C.ar    1  UNL1        0.0145
     21 C          65.5148   92.4528   11.2147 C.3     1  UNL1        0.1289
     22 C          65.5390   93.9442   11.0556 C.3     1  UNL1        0.0437
     23 C          66.8011   94.6324   10.6274 C.3     1  UNL1        0.0742
     24 N          67.3766   94.3659    9.2680 N.3     1  UNL1       -0.2703
     25 C          68.2774   93.1859    9.0531 C.3     1  UNL1        0.0897
     26 C          67.0512   95.2793    8.1236 C.3     1  UNL1        0.0897
     27 C          63.9183   84.5974   14.3277 C.2     1  UNL1        0.2488
     28 O          65.3949   84.6120   14.0636 O.2     1  UNL1       -0.2700
     29 N          63.0088   83.7822   13.4569 N.am    1  UNL1       -0.3015
     30 H          62.0397   83.7726   13.6301 H       1  UNL1        0.1497
     31 C          63.5758   82.9817   12.3220 C.3     1  UNL1        0.0841
     32 C          63.8079   81.8278   13.2519 C.3     1  UNL1        0.0222
     33 C          63.3439   84.1356   11.3921 C.3     1  UNL1        0.0222
     34 C          64.1429   82.1812   11.1873 C.3     1  UNL1        0.1549
     35 O          64.7295   82.8796    9.9965 O.3     1  UNL1       -0.3803
     36 H          64.0294   83.3571    9.5244 H       1  UNL1        0.2105
@<TRIPOS>BOND
     1    11    12    1
     2    12    13   ar
     3    13    14   ar
     4    14    15   ar
     5    15    16   ar
     6    16     1    1
     7     1     2   ar
     8     2     3   ar
     9     3     4   ar
    10     4     5   ar
    11     5     6   ar
    12     6     7   ar
    13     7    27    1
    14    27    28    2
    15    27    29   am
    16    29    31    1
    17    31    32    1
    18    31    33    1
    19    31    34    1
    20    34    35    1
    21     7     8   ar
    22     8     9   ar
    23    16    17   ar
    24    17    18   ar
    25    18    21    1
    26    21    22    1
    27    22    23    1
    28    23    24    1
    29    24    25    1
    30    24    26    1
    31    18    19   ar
    32    19    20   ar
    33    20    12   ar
    34    19    15   ar
    35     9     1   ar
    36     8     4    1
    37    29    30    1
    38    35    36    1
    39     9    10    1
