@<TRIPOS>MOLECULE
*****
 37 41 0 0 0
SMALL
GASTEIGER

@<TRIPOS>ATOM
      1 N          62.9895   90.6872   12.3185 N.3     1  UNL1       -0.2679
      2 C          64.2159   91.5225   12.0989 C.3     1  UNL1        0.0978
      3 C          64.6291   91.8966   10.7063 C.3     1  UNL1        0.0224
      4 C          65.8555   92.7318   10.4867 C.3     1  UNL1        0.0065
      5 C          66.6687   93.1931   11.6597 C.3     1  UNL1        0.0277
      6 C          66.2555   92.8190   13.0522 C.ar    1  UNL1       -0.0073
      7 C          67.0687   93.2803   14.2253 C.ar    1  UNL1       -0.0015
      8 C          66.6555   92.9063   15.6179 C.ar    1  UNL1        0.0203
      9 C          65.4291   92.0710   15.8375 C.ar    1  UNL1        0.0985
     10 N          64.6159   91.6097   14.6645 N.ar    1  UNL1       -0.2471
     11 C          65.0291   91.9838   13.2718 C.ar    1  UNL1        0.0695
     12 C          62.9561   89.6821   13.4313 C.3     1  UNL1        0.0725
     13 C          63.8622   88.4874   13.3904 C.3     1  UNL1        0.0188
     14 C          64.3407   87.8648   14.6684 C.3     1  UNL1        0.0185
     15 C          64.4490   86.3730   14.7813 C.3     1  UNL1        0.0686
     16 N          63.2078   85.5352   14.8677 N.3     1  UNL1       -0.2984
     17 H          63.1010   85.2671   15.8460 H       1  UNL1        0.1232
     18 O          62.5936   80.2972   12.6255 O.2     1  UNL1       -0.1730
     19 S          62.8675   81.7605   12.4417 S.O2    1  UNL1       -0.0099
     20 O          62.9676   81.2961   11.0190 O.2     1  UNL1       -0.1730
     21 C          63.1761   83.0625   11.7638 C.3     1  UNL1        0.1522
     22 C          63.2895   84.3208   12.5724 C.3     1  UNL1        0.0411
     23 C          63.0943   84.2770   14.0590 C.3     1  UNL1        0.0575
     24 C          62.7857   82.9750   14.7370 C.3     1  UNL1        0.0411
     25 C          62.6723   81.7168   13.9283 C.3     1  UNL1        0.1522
     26 C          61.7965   90.8571   11.4252 C.3     1  UNL1        0.0886
     27 C          61.4114   89.7645   10.4723 C.3     1  UNL1        0.0748
     28 C          62.3182   88.5858   10.2767 C.3     1  UNL1        0.0432
     29 C          61.9330   87.4932    9.3238 C.ar    1  UNL1       -0.0234
     30 C          62.8398   86.3145    9.1281 C.ar    1  UNL1       -0.0045
     31 C          62.4546   85.2220    8.1753 C.ar    1  UNL1       -0.0003
     32 C          61.1626   85.3082    7.4181 C.ar    1  UNL1       -0.0003
     33 C          60.2558   86.4869    7.6137 C.ar    1  UNL1       -0.0032
     34 C          60.6410   87.5794    8.5666 C.ar    1  UNL1       -0.0103
     35 C          59.7342   88.7582    8.7623 C.3     1  UNL1        0.0953
     36 N          60.1194   89.8507    9.7151 N.3     1  UNL1       -0.2934
     37 H          59.3747   89.9120   10.4095 H       1  UNL1        0.1236
@<TRIPOS>BOND
     1    18    19    2
     2    19    20    2
     3    19    21    1
     4    21    22    1
     5    22    23    1
     6    23    16    1
     7    16    15    1
     8    15    14    1
     9    14    13    1
    10    13    12    1
    11    12     1    1
    12     1    26    1
    13    27    26    1
    14    27    28    1
    15    28    29    1
    16    29    30   ar
    17    30    31   ar
    18    31    32   ar
    19    32    33   ar
    20    33    34   ar
    21    34    35    1
    22    35    36    1
    23     2     1    1
    24     2     3    1
    25     3     4    1
    26     4     5    1
    27     5     6    1
    28     6     7   ar
    29     7     8   ar
    30     8     9   ar
    31     9    10   ar
    32    10    11   ar
    33    23    24    1
    34    24    25    1
    35    25    19    1
    36    36    27    1
    37    11     2    1
    38    34    29   ar
    39    11     6   ar
    40    16    17    1
    41    36    37    1
@<TRIPOS>MOLECULE
*****
 37 41 0 0 0
SMALL
GASTEIGER

@<TRIPOS>ATOM
      1 N          63.3716   88.7820   13.7051 N.3     1  UNL1       -0.2679
      2 C          62.9788   89.1157   12.2965 C.3     1  UNL1        0.0978
      3 C          63.1511   90.5137   11.7810 C.3     1  UNL1        0.0224
      4 C          62.7583   90.8474   10.3723 C.3     1  UNL1        0.0065
      5 C          62.1932   89.7830    9.4791 C.3     1  UNL1        0.0277
      6 C          62.0209   88.3850    9.9946 C.ar    1  UNL1       -0.0073
      7 C          61.4557   87.3206    9.1014 C.ar    1  UNL1       -0.0015
      8 C          61.2834   85.9226    9.6170 C.ar    1  UNL1        0.0203
      9 C          61.6762   85.5889   11.0256 C.ar    1  UNL1        0.0985
     10 N          62.2413   86.6532   11.9188 N.ar    1  UNL1       -0.2471
     11 C          62.4137   88.0513   11.4033 C.ar    1  UNL1        0.0695
     12 C          63.9666   87.4417   14.0204 C.3     1  UNL1        0.0725
     13 C          64.2041   87.0432   15.4469 C.3     1  UNL1        0.0188
     14 C          64.1359   85.5981   15.8432 C.3     1  UNL1        0.0185
     15 C          62.8357   84.8559   15.7517 C.3     1  UNL1        0.0686
     16 N          62.8296   83.3902   15.4324 N.3     1  UNL1       -0.2984
     17 H          63.5325   82.9557   16.0303 H       1  UNL1        0.1232
     18 O          64.5066   82.3566   10.0509 O.2     1  UNL1       -0.1730
     19 S          63.6559   81.9989   11.2335 S.O2    1  UNL1       -0.0099
     20 O          63.2273   80.9306   10.2717 O.2     1  UNL1       -0.1730
     21 C          62.6564   81.2702   12.0820 C.3     1  UNL1        0.1522
     22 C          62.3809   81.7340   13.4817 C.3     1  UNL1        0.0411
     23 C          63.1050   82.9264   14.0328 C.3     1  UNL1        0.0575
     24 C          64.1046   83.6551   13.1842 C.3     1  UNL1        0.0411
     25 C          64.3800   83.1913   11.7846 C.3     1  UNL1        0.1522
     26 C          63.1693   89.7886   14.7986 C.3     1  UNL1        0.0886
     27 C          64.2846   90.7166   15.1795 C.3     1  UNL1        0.0748
     28 C          65.5746   90.6926   14.4144 C.3     1  UNL1        0.0432
     29 C          66.6899   91.6206   14.7953 C.ar    1  UNL1       -0.0234
     30 C          67.9799   91.5966   14.0303 C.ar    1  UNL1       -0.0045
     31 C          69.0951   92.5245   14.4112 C.ar    1  UNL1       -0.0003
     32 C          68.9203   93.4766   15.5571 C.ar    1  UNL1       -0.0003
     33 C          67.6303   93.5006   16.3221 C.ar    1  UNL1       -0.0032
     34 C          66.5151   92.5726   15.9412 C.ar    1  UNL1       -0.0103
     35 C          65.2250   92.5966   16.7063 C.3     1  UNL1        0.0953
     36 N          64.1098   91.6687   16.3254 N.3     1  UNL1       -0.2934
     37 H          63.3038   92.2528   16.1026 H       1  UNL1        0.1236
@<TRIPOS>BOND
     1    18    19    2
     2    19    20    2
     3    19    21    1
     4    21    22    1
     5    22    23    1
     6    23    16    1
     7    16    15    1
     8    15    14    1
     9    14    13    1
    10    13    12    1
    11    12     1    1
    12     1    26    1
    13    27    26    1
    14    27    28    1
    15    28    29    1
    16    29    30   ar
    17    30    31   ar
    18    31    32   ar
    19    32    33   ar
    20    33    34   ar
    21    34    35    1
    22    35    36    1
    23     2     1    1
    24     2     3    1
    25     3     4    1
    26     4     5    1
    27     5     6    1
    28     6     7   ar
    29     7     8   ar
    30     8     9   ar
    31     9    10   ar
    32    10    11   ar
    33    23    24    1
    34    24    25    1
    35    25    19    1
    36    36    27    1
    37    11     2    1
    38    34    29   ar
    39    11     6   ar
    40    16    17    1
    41    36    37    1
@<TRIPOS>MOLECULE
*****
 37 41 0 0 0
SMALL
GASTEIGER

@<TRIPOS>ATOM
      1 N          63.7669   90.0144   13.5091 N.3     1  UNL1       -0.2679
      2 C          64.6961   91.1483   13.8266 C.3     1  UNL1        0.0978
      3 C          65.1931   91.3407   15.2287 C.3     1  UNL1        0.0224
      4 C          66.1223   92.4746   15.5461 C.3     1  UNL1        0.0065
      5 C          66.5546   93.4161   14.4614 C.3     1  UNL1        0.0277
      6 C          66.0577   93.2237   13.0593 C.ar    1  UNL1       -0.0073
      7 C          66.4900   94.1653   11.9745 C.ar    1  UNL1       -0.0015
      8 C          65.9930   93.9729   10.5724 C.ar    1  UNL1        0.0203
      9 C          65.0638   92.8390   10.2550 C.ar    1  UNL1        0.0985
     10 N          64.6315   91.8975   11.3397 N.ar    1  UNL1       -0.2471
     11 C          65.1284   92.0898   12.7419 C.ar    1  UNL1        0.0695
     12 C          64.2464   88.5977   13.6220 C.3     1  UNL1        0.0725
     13 C          64.2313   87.9044   14.9521 C.3     1  UNL1        0.0188
     14 C          64.5605   86.4437   15.0403 C.3     1  UNL1        0.0185
     15 C          63.6523   85.5142   15.7895 C.3     1  UNL1        0.0686
     16 N          62.4325   84.9552   15.1189 N.3     1  UNL1       -0.2984
     17 H          61.8173   84.6188   15.8597 H       1  UNL1        0.1232
     18 O          63.1492   81.3859   10.6931 O.2     1  UNL1       -0.1730
     19 S          62.8369   81.6031   12.1441 S.O2    1  UNL1       -0.0099
     20 O          62.7311   80.1084   12.0758 O.2     1  UNL1       -0.1730
     21 C          62.4879   81.3012   13.5713 C.3     1  UNL1        0.1522
     22 C          62.3531   82.4186   14.5630 C.3     1  UNL1        0.0411
     23 C          62.5673   83.8378   14.1273 C.3     1  UNL1        0.0575
     24 C          62.9163   84.1397   12.7000 C.3     1  UNL1        0.0411
     25 C          63.0511   83.0224   11.7084 C.3     1  UNL1        0.1522
     26 C          62.3581   90.2973   13.0789 C.3     1  UNL1        0.0886
     27 C          61.7915   89.6137   11.8697 C.3     1  UNL1        0.0748
     28 C          62.3850   88.3218   11.3916 C.3     1  UNL1        0.0432
     29 C          61.8185   87.6383   10.1824 C.ar    1  UNL1       -0.0234
     30 C          62.4119   86.3463    9.7043 C.ar    1  UNL1       -0.0045
     31 C          61.8454   85.6629    8.4952 C.ar    1  UNL1       -0.0003
     32 C          60.6854   86.2714    7.7643 C.ar    1  UNL1       -0.0003
     33 C          60.0920   87.5633    8.2424 C.ar    1  UNL1       -0.0032
     34 C          60.6585   88.2468    9.4515 C.ar    1  UNL1       -0.0103
     35 C          60.0651   89.5388    9.9297 C.3     1  UNL1        0.0953
     36 N          60.6316   90.2222   11.1388 N.3     1  UNL1       -0.2934
     37 H          59.8706   90.3070   11.8127 H       1  UNL1        0.1236
@<TRIPOS>BOND
     1    18    19    2
     2    19    20    2
     3    19    21    1
     4    21    22    1
     5    22    23    1
     6    23    16    1
     7    16    15    1
     8    15    14    1
     9    14    13    1
    10    13    12    1
    11    12     1    1
    12     1    26    1
    13    27    26    1
    14    27    28    1
    15    28    29    1
    16    29    30   ar
    17    30    31   ar
    18    31    32   ar
    19    32    33   ar
    20    33    34   ar
    21    34    35    1
    22    35    36    1
    23     2     1    1
    24     2     3    1
    25     3     4    1
    26     4     5    1
    27     5     6    1
    28     6     7   ar
    29     7     8   ar
    30     8     9   ar
    31     9    10   ar
    32    10    11   ar
    33    23    24    1
    34    24    25    1
    35    25    19    1
    36    36    27    1
    37    11     2    1
    38    34    29   ar
    39    11     6   ar
    40    16    17    1
    41    36    37    1
@<TRIPOS>MOLECULE
*****
 37 41 0 0 0
SMALL
GASTEIGER

@<TRIPOS>ATOM
      1 N          63.2450   90.5399   13.0717 N.3     1  UNL1       -0.2679
      2 C          64.3476   91.4563   12.6307 C.3     1  UNL1        0.0978
      3 C          64.5300   91.7635   11.1739 C.3     1  UNL1        0.0224
      4 C          65.6326   92.6799   10.7330 C.3     1  UNL1        0.0065
      5 C          66.5528   93.2892   11.7488 C.3     1  UNL1        0.0277
      6 C          66.3704   92.9821   13.2056 C.ar    1  UNL1       -0.0073
      7 C          67.2905   93.5914   14.2216 C.ar    1  UNL1       -0.0015
      8 C          67.1081   93.2842   15.6784 C.ar    1  UNL1        0.0203
      9 C          66.0055   92.3678   16.1193 C.ar    1  UNL1        0.0985
     10 N          65.0853   91.7585   15.1035 N.ar    1  UNL1       -0.2471
     11 C          65.2677   92.0656   13.6466 C.ar    1  UNL1        0.0695
     12 C          63.4196   89.6915   14.2963 C.3     1  UNL1        0.0725
     13 C          64.3199   88.4924   14.2558 C.3     1  UNL1        0.0188
     14 C          64.2425   87.4594   15.3407 C.3     1  UNL1        0.0185
     15 C          64.1288   86.0065   14.9860 C.3     1  UNL1        0.0686
     16 N          63.4991   85.5985   13.6870 N.3     1  UNL1       -0.2984
     17 H          62.6176   86.1066   13.6148 H       1  UNL1        0.1232
     18 O          62.7495   80.2286   11.8314 O.2     1  UNL1       -0.1730
     19 S          62.5701   81.2665   12.8994 S.O2    1  UNL1       -0.0099
     20 O          61.9163   80.0921   13.5650 O.2     1  UNL1       -0.1730
     21 C          62.1636   81.8965   14.1985 C.3     1  UNL1        0.1522
     22 C          62.4733   83.3406   14.4611 C.3     1  UNL1        0.0411
     23 C          63.1894   84.1546   13.4245 C.3     1  UNL1        0.0575
     24 C          63.5959   83.5245   12.1253 C.3     1  UNL1        0.0411
     25 C          63.2863   82.0805   11.8627 C.3     1  UNL1        0.1522
     26 C          61.9678   90.4720   12.2881 C.3     1  UNL1        0.0886
     27 C          61.7104   89.3119   11.3726 C.3     1  UNL1        0.0748
     28 C          60.7218   89.4455   10.2524 C.3     1  UNL1        0.0432
     29 C          60.4644   88.2854    9.3369 C.ar    1  UNL1       -0.0234
     30 C          59.4758   88.4190    8.2167 C.ar    1  UNL1       -0.0045
     31 C          59.2185   87.2589    7.3013 C.ar    1  UNL1       -0.0003
     32 C          59.9496   85.9653    7.5061 C.ar    1  UNL1       -0.0003
     33 C          60.9382   85.8317    8.6263 C.ar    1  UNL1       -0.0032
     34 C          61.1956   86.9918    9.5417 C.ar    1  UNL1       -0.0103
     35 C          62.1842   86.8582   10.6619 C.3     1  UNL1        0.0953
     36 N          62.4415   88.0183   11.5774 N.3     1  UNL1       -0.2934
     37 H          63.4373   88.2294   11.5123 H       1  UNL1        0.1236
@<TRIPOS>BOND
     1    18    19    2
     2    19    20    2
     3    19    21    1
     4    21    22    1
     5    22    23    1
     6    23    16    1
     7    16    15    1
     8    15    14    1
     9    14    13    1
    10    13    12    1
    11    12     1    1
    12     1    26    1
    13    27    26    1
    14    27    28    1
    15    28    29    1
    16    29    30   ar
    17    30    31   ar
    18    31    32   ar
    19    32    33   ar
    20    33    34   ar
    21    34    35    1
    22    35    36    1
    23     2     1    1
    24     2     3    1
    25     3     4    1
    26     4     5    1
    27     5     6    1
    28     6     7   ar
    29     7     8   ar
    30     8     9   ar
    31     9    10   ar
    32    10    11   ar
    33    23    24    1
    34    24    25    1
    35    25    19    1
    36    36    27    1
    37    11     2    1
    38    34    29   ar
    39    11     6   ar
    40    16    17    1
    41    36    37    1
@<TRIPOS>MOLECULE
*****
 37 41 0 0 0
SMALL
GASTEIGER

@<TRIPOS>ATOM
      1 N          63.5379   88.9159   14.0419 N.3     1  UNL1       -0.2679
      2 C          63.3239   89.5510   12.6999 C.3     1  UNL1        0.0978
      3 C          64.0044   90.8452   12.3655 C.3     1  UNL1        0.0224
      4 C          63.7903   91.4803   11.0235 C.3     1  UNL1        0.0065
      5 C          62.8958   90.8211   10.0159 C.3     1  UNL1        0.0277
      6 C          62.2153   89.5269   10.3504 C.ar    1  UNL1       -0.0073
      7 C          61.3206   88.8677    9.3428 C.ar    1  UNL1       -0.0015
      8 C          60.6401   87.5735    9.6772 C.ar    1  UNL1        0.0203
      9 C          60.8541   86.9384   11.0192 C.ar    1  UNL1        0.0985
     10 N          61.7487   87.5976   12.0267 N.ar    1  UNL1       -0.2471
     11 C          62.4293   88.8919   11.6923 C.ar    1  UNL1        0.0695
     12 C          62.8599   89.4798   15.2552 C.3     1  UNL1        0.0725
     13 C          63.6445   90.2893   16.2447 C.3     1  UNL1        0.0188
     14 C          64.1266   91.6613   15.8770 C.3     1  UNL1        0.0185
     15 C          65.5734   91.8855   15.5510 C.3     1  UNL1        0.0686
     16 N          65.9967   93.1357   14.8382 N.3     1  UNL1       -0.2984
     17 H          65.1923   93.7629   14.8411 H       1  UNL1        0.1232
     18 O          68.3343   92.0666    9.7163 O.2     1  UNL1       -0.1730
     19 S          67.4584   92.9170   10.5879 S.O2    1  UNL1       -0.0099
     20 O          67.3291   93.6558    9.2889 O.2     1  UNL1       -0.1730
     21 C          66.5377   94.0240   11.0083 C.3     1  UNL1        0.1522
     22 C          66.0504   94.0969   12.4251 C.3     1  UNL1        0.0411
     23 C          66.4839   93.0628   13.4214 C.3     1  UNL1        0.0575
     24 C          67.4047   91.9558   13.0010 C.3     1  UNL1        0.0411
     25 C          67.8920   91.8829   11.5842 C.3     1  UNL1        0.1522
     26 C          64.4300   87.7170   14.1705 C.3     1  UNL1        0.0886
     27 C          63.8326   86.3442   14.2644 C.3     1  UNL1        0.0748
     28 C          63.7800   85.4646   13.0505 C.3     1  UNL1        0.0432
     29 C          63.1826   84.0919   13.1444 C.ar    1  UNL1       -0.0234
     30 C          63.1299   83.2123   11.9305 C.ar    1  UNL1       -0.0045
     31 C          62.5325   81.8396   12.0244 C.ar    1  UNL1       -0.0003
     32 C          61.9879   81.3465   13.3322 C.ar    1  UNL1       -0.0003
     33 C          62.0406   82.2261   14.5460 C.ar    1  UNL1       -0.0032
     34 C          62.6379   83.5988   14.4521 C.ar    1  UNL1       -0.0103
     35 C          62.6906   84.4785   15.6660 C.3     1  UNL1        0.0953
     36 N          63.2880   85.8511   15.5721 N.3     1  UNL1       -0.2934
     37 H          64.0562   85.8845   16.2423 H       1  UNL1        0.1236
@<TRIPOS>BOND
     1    18    19    2
     2    19    20    2
     3    19    21    1
     4    21    22    1
     5    22    23    1
     6    23    16    1
     7    16    15    1
     8    15    14    1
     9    14    13    1
    10    13    12    1
    11    12     1    1
    12     1    26    1
    13    27    26    1
    14    27    28    1
    15    28    29    1
    16    29    30   ar
    17    30    31   ar
    18    31    32   ar
    19    32    33   ar
    20    33    34   ar
    21    34    35    1
    22    35    36    1
    23     2     1    1
    24     2     3    1
    25     3     4    1
    26     4     5    1
    27     5     6    1
    28     6     7   ar
    29     7     8   ar
    30     8     9   ar
    31     9    10   ar
    32    10    11   ar
    33    23    24    1
    34    24    25    1
    35    25    19    1
    36    36    27    1
    37    11     2    1
    38    34    29   ar
    39    11     6   ar
    40    16    17    1
    41    36    37    1
@<TRIPOS>MOLECULE
*****
 37 41 0 0 0
SMALL
GASTEIGER

@<TRIPOS>ATOM
      1 N          66.5828   92.3628   12.4833 N.3     1  UNL1       -0.2679
      2 C          67.1500   92.7475   11.1491 C.3     1  UNL1        0.0978
      3 C          67.9723   91.7630   10.3716 C.3     1  UNL1        0.0224
      4 C          68.5395   92.1477    9.0374 C.3     1  UNL1        0.0065
      5 C          68.2844   93.5170    8.4806 C.3     1  UNL1        0.0277
      6 C          67.4621   94.5015    9.2580 C.ar    1  UNL1       -0.0073
      7 C          67.2070   95.8708    8.7012 C.ar    1  UNL1       -0.0015
      8 C          66.3847   96.8553    9.4787 C.ar    1  UNL1        0.0203
      9 C          65.8174   96.4706   10.8129 C.ar    1  UNL1        0.0985
     10 N          66.0725   95.1014   11.3697 N.ar    1  UNL1       -0.2471
     11 C          66.8949   94.1168   10.5923 C.ar    1  UNL1        0.0695
     12 C          67.4991   91.9532   13.5980 C.3     1  UNL1        0.0725
     13 C          66.9299   91.5307   14.9200 C.3     1  UNL1        0.0188
     14 C          66.0630   92.4746   15.6993 C.3     1  UNL1        0.0185
     15 C          64.8484   91.9608   16.4139 C.3     1  UNL1        0.0686
     16 N          63.8137   91.1747   15.6643 N.3     1  UNL1       -0.2984
     17 H          62.9046   91.5437   15.9431 H       1  UNL1        0.1232
     18 O          63.0091   85.6733   17.0528 O.2     1  UNL1       -0.1730
     19 S          63.6028   86.7049   16.1399 S.O2    1  UNL1       -0.0099
     20 O          64.0887   85.4539   15.4700 O.2     1  UNL1       -0.1730
     21 C          64.3652   87.3021   14.9945 C.3     1  UNL1        0.1522
     22 C          64.4355   88.7921   14.8359 C.3     1  UNL1        0.0411
     23 C          63.7434   89.6848   15.8229 C.3     1  UNL1        0.0575
     24 C          62.9810   89.0876   16.9683 C.3     1  UNL1        0.0411
     25 C          62.9107   87.5977   17.1269 C.3     1  UNL1        0.1522
     26 C          65.0992   92.3878   12.7030 C.3     1  UNL1        0.0886
     27 C          64.1987   91.5575   11.8370 C.3     1  UNL1        0.0748
     28 C          63.7966   90.1807   12.2759 C.3     1  UNL1        0.0432
     29 C          62.8961   89.3505   11.4099 C.ar    1  UNL1       -0.0234
     30 C          62.4940   87.9737   11.8488 C.ar    1  UNL1       -0.0045
     31 C          61.5936   87.1435   10.9828 C.ar    1  UNL1       -0.0003
     32 C          61.0952   87.6902    9.6779 C.ar    1  UNL1       -0.0003
     33 C          61.4973   89.0669    9.2389 C.ar    1  UNL1       -0.0032
     34 C          62.3978   89.8971   10.1049 C.ar    1  UNL1       -0.0103
     35 C          62.7999   91.2740    9.6660 C.3     1  UNL1        0.0953
     36 N          63.7004   92.1041   10.5320 N.3     1  UNL1       -0.2934
     37 H          63.1929   92.9624   10.7469 H       1  UNL1        0.1236
@<TRIPOS>BOND
     1    18    19    2
     2    19    20    2
     3    19    21    1
     4    21    22    1
     5    22    23    1
     6    23    16    1
     7    16    15    1
     8    15    14    1
     9    14    13    1
    10    13    12    1
    11    12     1    1
    12     1    26    1
    13    27    26    1
    14    27    28    1
    15    28    29    1
    16    29    30   ar
    17    30    31   ar
    18    31    32   ar
    19    32    33   ar
    20    33    34   ar
    21    34    35    1
    22    35    36    1
    23     2     1    1
    24     2     3    1
    25     3     4    1
    26     4     5    1
    27     5     6    1
    28     6     7   ar
    29     7     8   ar
    30     8     9   ar
    31     9    10   ar
    32    10    11   ar
    33    23    24    1
    34    24    25    1
    35    25    19    1
    36    36    27    1
    37    11     2    1
    38    34    29   ar
    39    11     6   ar
    40    16    17    1
    41    36    37    1
@<TRIPOS>MOLECULE
*****
 37 41 0 0 0
SMALL
GASTEIGER

@<TRIPOS>ATOM
      1 N          65.6727   92.3687   11.9153 N.3     1  UNL1       -0.2679
      2 C          66.5899   92.7642   10.7962 C.3     1  UNL1        0.0978
      3 C          67.6183   91.7958   10.2917 C.3     1  UNL1        0.0224
      4 C          68.5356   92.1912    9.1726 C.3     1  UNL1        0.0065
      5 C          68.4245   93.5550    8.5582 C.3     1  UNL1        0.0277
      6 C          67.3962   94.5234    9.0627 C.ar    1  UNL1       -0.0073
      7 C          67.2850   95.8873    8.4483 C.ar    1  UNL1       -0.0015
      8 C          66.2567   96.8557    8.9528 C.ar    1  UNL1        0.0203
      9 C          65.3394   96.4603   10.0719 C.ar    1  UNL1        0.0985
     10 N          65.4505   95.0965   10.6863 N.ar    1  UNL1       -0.2471
     11 C          66.4789   94.1280   10.1818 C.ar    1  UNL1        0.0695
     12 C          66.2356   92.0423   13.2667 C.3     1  UNL1        0.0725
     13 C          65.3995   92.2426   14.4959 C.3     1  UNL1        0.0188
     14 C          65.1099   91.0837   15.4030 C.3     1  UNL1        0.0185
     15 C          63.6925   90.6562   15.6445 C.3     1  UNL1        0.0686
     16 N          63.3862   89.6373   16.7020 N.3     1  UNL1       -0.2984
     17 H          64.0551   89.7868   17.4574 H       1  UNL1        0.1232
     18 O          64.1654   84.3117   14.7342 O.2     1  UNL1       -0.1730
     19 S          63.5123   85.2512   15.7041 S.O2    1  UNL1       -0.0099
     20 O          62.9235   83.9507   16.1645 O.2     1  UNL1       -0.1730
     21 C          62.6546   85.7389   16.8339 C.3     1  UNL1        0.1522
     22 C          62.6125   87.2010   17.1666 C.3     1  UNL1        0.0411
     23 C          63.4282   88.1753   16.3694 C.3     1  UNL1        0.0575
     24 C          64.2859   87.6875   15.2395 C.3     1  UNL1        0.0411
     25 C          64.3279   86.2254   14.9069 C.3     1  UNL1        0.1522
     26 C          64.1924   92.2998   11.6829 C.3     1  UNL1        0.0886
     27 C          63.5274   90.9719   11.4717 C.3     1  UNL1        0.0748
     28 C          62.5469   90.7940   10.3505 C.3     1  UNL1        0.0432
     29 C          61.8819   89.4661   10.1393 C.ar    1  UNL1       -0.0234
     30 C          60.9015   89.2882    9.0182 C.ar    1  UNL1       -0.0045
     31 C          60.2365   87.9604    8.8070 C.ar    1  UNL1       -0.0003
     32 C          60.5520   86.8105    9.7170 C.ar    1  UNL1       -0.0003
     33 C          61.5324   86.9884   10.8382 C.ar    1  UNL1       -0.0032
     34 C          62.1974   88.3162   11.0493 C.ar    1  UNL1       -0.0103
     35 C          63.1779   88.4942   12.1706 C.3     1  UNL1        0.0953
     36 N          63.8428   89.8220   12.3817 N.3     1  UNL1       -0.2934
     37 H          64.8480   89.6617   12.3160 H       1  UNL1        0.1236
@<TRIPOS>BOND
     1    18    19    2
     2    19    20    2
     3    19    21    1
     4    21    22    1
     5    22    23    1
     6    23    16    1
     7    16    15    1
     8    15    14    1
     9    14    13    1
    10    13    12    1
    11    12     1    1
    12     1    26    1
    13    27    26    1
    14    27    28    1
    15    28    29    1
    16    29    30   ar
    17    30    31   ar
    18    31    32   ar
    19    32    33   ar
    20    33    34   ar
    21    34    35    1
    22    35    36    1
    23     2     1    1
    24     2     3    1
    25     3     4    1
    26     4     5    1
    27     5     6    1
    28     6     7   ar
    29     7     8   ar
    30     8     9   ar
    31     9    10   ar
    32    10    11   ar
    33    23    24    1
    34    24    25    1
    35    25    19    1
    36    36    27    1
    37    11     2    1
    38    34    29   ar
    39    11     6   ar
    40    16    17    1
    41    36    37    1
@<TRIPOS>MOLECULE
*****
 37 41 0 0 0
SMALL
GASTEIGER

@<TRIPOS>ATOM
      1 N          61.4684   87.7147   10.9128 N.3     1  UNL1       -0.2679
      2 C          60.7236   87.2981    9.6792 C.3     1  UNL1        0.0978
      3 C          59.3476   87.8343    9.4169 C.3     1  UNL1        0.0224
      4 C          58.6028   87.4177    8.1833 C.3     1  UNL1        0.0065
      5 C          59.2341   86.4648    7.2121 C.3     1  UNL1        0.0277
      6 C          60.6101   85.9285    7.4744 C.ar    1  UNL1       -0.0073
      7 C          61.2415   84.9756    6.5031 C.ar    1  UNL1       -0.0015
      8 C          62.6176   84.4393    6.7654 C.ar    1  UNL1        0.0203
      9 C          63.3623   84.8560    7.9990 C.ar    1  UNL1        0.0985
     10 N          62.7311   85.8089    8.9702 N.ar    1  UNL1       -0.2471
     11 C          61.3549   86.3452    8.7079 C.ar    1  UNL1        0.0695
     12 C          62.4903   86.7982   11.5174 C.3     1  UNL1        0.0725
     13 C          62.0655   85.4859   12.1069 C.3     1  UNL1        0.0188
     14 C          62.6858   84.2095   11.6212 C.3     1  UNL1        0.0185
     15 C          64.1234   83.9104   11.9273 C.3     1  UNL1        0.0686
     16 N          64.5495   83.6438   13.3407 N.3     1  UNL1       -0.2984
     17 H          64.2790   82.6837   13.5537 H       1  UNL1        0.1232
     18 O          63.1858   87.5668   17.2893 O.2     1  UNL1       -0.1730
     19 S          62.9768   86.2092   16.6866 S.O2    1  UNL1       -0.0099
     20 O          61.9648   86.1617   17.7927 O.2     1  UNL1       -0.1730
     21 C          62.4164   84.8352   16.4681 C.3     1  UNL1        0.1522
     22 C          62.9406   83.9800   15.3528 C.3     1  UNL1        0.0411
     23 C          64.0253   84.4989   14.4560 C.3     1  UNL1        0.0575
     24 C          64.5857   85.8731   14.6746 C.3     1  UNL1        0.0411
     25 C          64.0615   86.7282   15.7899 C.3     1  UNL1        0.1522
     26 C          61.1913   89.0480   11.5418 C.3     1  UNL1        0.0886
     27 C          62.3206   89.8652   12.0957 C.3     1  UNL1        0.0748
     28 C          63.1562   90.7086   11.1789 C.3     1  UNL1        0.0432
     29 C          64.2855   91.5258   11.7328 C.ar    1  UNL1       -0.0234
     30 C          65.1211   92.3691   10.8160 C.ar    1  UNL1       -0.0045
     31 C          66.2503   93.1864   11.3699 C.ar    1  UNL1       -0.0003
     32 C          66.5440   93.1603   12.8407 C.ar    1  UNL1       -0.0003
     33 C          65.7084   92.3170   13.7575 C.ar    1  UNL1       -0.0032
     34 C          64.5792   91.4997   13.2036 C.ar    1  UNL1       -0.0103
     35 C          63.7435   90.6564   14.1204 C.3     1  UNL1        0.0953
     36 N          62.6143   89.8391   13.5664 N.3     1  UNL1       -0.2934
     37 H          61.7663   90.1484   14.0416 H       1  UNL1        0.1236
@<TRIPOS>BOND
     1    18    19    2
     2    19    20    2
     3    19    21    1
     4    21    22    1
     5    22    23    1
     6    23    16    1
     7    16    15    1
     8    15    14    1
     9    14    13    1
    10    13    12    1
    11    12     1    1
    12     1    26    1
    13    27    26    1
    14    27    28    1
    15    28    29    1
    16    29    30   ar
    17    30    31   ar
    18    31    32   ar
    19    32    33   ar
    20    33    34   ar
    21    34    35    1
    22    35    36    1
    23     2     1    1
    24     2     3    1
    25     3     4    1
    26     4     5    1
    27     5     6    1
    28     6     7   ar
    29     7     8   ar
    30     8     9   ar
    31     9    10   ar
    32    10    11   ar
    33    23    24    1
    34    24    25    1
    35    25    19    1
    36    36    27    1
    37    11     2    1
    38    34    29   ar
    39    11     6   ar
    40    16    17    1
    41    36    37    1
@<TRIPOS>MOLECULE
*****
 37 41 0 0 0
SMALL
GASTEIGER

@<TRIPOS>ATOM
      1 N          63.2324   88.2777   12.9109 N.3     1  UNL1       -0.2679
      2 C          62.5182   87.5207   11.8306 C.3     1  UNL1        0.0978
      3 C          62.6672   86.0313   11.7344 C.3     1  UNL1        0.0224
      4 C          61.9530   85.2743   10.6541 C.3     1  UNL1        0.0065
      5 C          61.0899   86.0068    9.6701 C.3     1  UNL1        0.0277
      6 C          60.9410   87.4963    9.7663 C.ar    1  UNL1       -0.0073
      7 C          60.0778   88.2289    8.7822 C.ar    1  UNL1       -0.0015
      8 C          59.9289   89.7183    8.8784 C.ar    1  UNL1        0.0203
      9 C          60.6431   90.4753    9.9586 C.ar    1  UNL1        0.0985
     10 N          61.5062   89.7428   10.9427 N.ar    1  UNL1       -0.2471
     11 C          61.6551   88.2532   10.8465 C.ar    1  UNL1        0.0695
     12 C          64.1181   87.5488   13.8774 C.3     1  UNL1        0.0725
     13 C          63.9112   87.7120   15.3541 C.3     1  UNL1        0.0188
     14 C          63.5235   86.5300   16.1923 C.3     1  UNL1        0.0185
     15 C          64.0734   85.1715   15.8729 C.3     1  UNL1        0.0686
     16 N          63.1524   84.0766   15.4220 N.3     1  UNL1       -0.2984
     17 H          63.2142   83.3343   16.1187 H       1  UNL1        0.1232
     18 O          63.1213   81.1096   10.5192 O.2     1  UNL1       -0.1730
     19 S          63.7556   82.1410   11.4046 S.O2    1  UNL1       -0.0099
     20 O          64.6979   82.1839   10.2383 O.2     1  UNL1       -0.1730
     21 C          64.7171   83.1873   11.8849 C.3     1  UNL1        0.1522
     22 C          64.5161   83.8326   13.2241 C.3     1  UNL1        0.0411
     23 C          63.3535   83.4315   14.0828 C.3     1  UNL1        0.0575
     24 C          62.3920   82.3851   13.6025 C.3     1  UNL1        0.0411
     25 C          62.5930   81.7399   12.2634 C.3     1  UNL1        0.1522
     26 C          63.0609   89.7634   13.0246 C.3     1  UNL1        0.0886
     27 C          64.0130   90.5666   13.8604 C.3     1  UNL1        0.0748
     28 C          65.4163   90.7992   13.3844 C.3     1  UNL1        0.0432
     29 C          66.3684   91.6023   14.2202 C.ar    1  UNL1       -0.0234
     30 C          67.7717   91.8349   13.7441 C.ar    1  UNL1       -0.0045
     31 C          68.7237   92.6380   14.5799 C.ar    1  UNL1       -0.0003
     32 C          68.2725   93.2086   15.8917 C.ar    1  UNL1       -0.0003
     33 C          66.8692   92.9760   16.3678 C.ar    1  UNL1       -0.0032
     34 C          65.9172   92.1729   15.5320 C.ar    1  UNL1       -0.0103
     35 C          64.5138   91.9402   16.0080 C.3     1  UNL1        0.0953
     36 N          63.5618   91.1371   15.1722 N.3     1  UNL1       -0.2934
     37 H          62.7643   91.7408   14.9721 H       1  UNL1        0.1236
@<TRIPOS>BOND
     1    18    19    2
     2    19    20    2
     3    19    21    1
     4    21    22    1
     5    22    23    1
     6    23    16    1
     7    16    15    1
     8    15    14    1
     9    14    13    1
    10    13    12    1
    11    12     1    1
    12     1    26    1
    13    27    26    1
    14    27    28    1
    15    28    29    1
    16    29    30   ar
    17    30    31   ar
    18    31    32   ar
    19    32    33   ar
    20    33    34   ar
    21    34    35    1
    22    35    36    1
    23     2     1    1
    24     2     3    1
    25     3     4    1
    26     4     5    1
    27     5     6    1
    28     6     7   ar
    29     7     8   ar
    30     8     9   ar
    31     9    10   ar
    32    10    11   ar
    33    23    24    1
    34    24    25    1
    35    25    19    1
    36    36    27    1
    37    11     2    1
    38    34    29   ar
    39    11     6   ar
    40    16    17    1
    41    36    37    1
