@<TRIPOS>MOLECULE
*****
 27 29 0 0 0
SMALL
GASTEIGER

@<TRIPOS>ATOM
      1 C          63.6536   90.7149   12.0141 C.ar    1  UNL1        0.0191
      2 C          63.0942   90.7529   10.6228 C.ar    1  UNL1        0.0063
      3 C          62.4436   89.5322   10.0425 C.ar    1  UNL1        0.0581
      4 C          62.3523   88.2737   10.8535 C.ar    1  UNL1        0.2297
      5 N          62.9117   88.2357   12.2447 N.ar    1  UNL1       -0.2098
      6 C          63.5623   89.4564   12.8250 C.ar    1  UNL1        0.1020
      7 C          65.4674   92.5710   11.8923 C.2     1  UNL1       -0.0069
      8 C          64.3042   91.9355   12.5945 C.2     1  UNL1       -0.0014
      9 C          66.1180   93.7916   12.4728 C.3     1  UNL1        0.0939
     10 C          66.3794   94.9867   11.6048 C.3     1  UNL1        0.0262
     11 C          68.0217   92.9798   15.8590 C.3     1  UNL1        0.0946
     12 C          67.6325   92.9543   14.4107 C.2     1  UNL1        0.2232
     13 O          68.3685   92.0661   13.4517 O.2     1  UNL1       -0.2751
     14 N          66.5073   93.8171   13.9211 N.am    1  UNL1       -0.3022
     15 H          66.0242   94.4000   14.5505 H       1  UNL1        0.1497
     16 O          61.7017   87.0530   10.2732 O.3     1  UNL1       -0.4352
     17 C          62.2787   85.6951   10.5439 C.ar    1  UNL1        0.1582
     18 C          62.1166   85.0674   11.8966 C.ar    1  UNL1        0.0464
     19 C          62.6936   83.7095   12.1673 C.ar    1  UNL1        0.0513
     20 S          62.6931   82.8449   13.3930 S.2     1  UNL1       -0.0707
     21 C          63.4318   81.5804   13.0685 C.ar    1  UNL1        0.0886
     22 C          63.6714   80.4340   14.0058 C.3     1  UNL1        0.0594
     23 N          63.8888   81.6635   11.6423 N.ar    1  UNL1       -0.2427
     24 C          63.4326   82.9794   11.0852 C.ar    1  UNL1        0.0885
     25 C          63.5946   83.6071    9.7326 C.ar    1  UNL1        0.0341
     26 C          63.0177   84.9649    9.4619 C.ar    1  UNL1        0.0937
     27 CL         63.1797   85.5926    8.1092 Cl      1  UNL1       -0.0790
@<TRIPOS>BOND
     1    11    12    1
     2    12    13    2
     3    12    14   am
     4    14     9    1
     5     9    10    1
     6     9     7    1
     7     7     8    2
     8     8     1    1
     9     1     2   ar
    10     2     3   ar
    11     3     4   ar
    12     4    16    1
    13    16    17    1
    14    17    18   ar
    15    18    19   ar
    16    19    20   ar
    17    20    21   ar
    18    21    22    1
    19    21    23   ar
    20    23    24   ar
    21    24    25   ar
    22    25    26   ar
    23    26    27    1
    24     4     5   ar
    25     5     6   ar
    26     6     1   ar
    27    26    17   ar
    28    24    19   ar
    29    14    15    1
@<TRIPOS>MOLECULE
*****
 27 29 0 0 0
SMALL
GASTEIGER

@<TRIPOS>ATOM
      1 C          63.6115   90.7117   11.9984 C.ar    1  UNL1        0.0191
      2 C          63.0516   90.7488   10.6074 C.ar    1  UNL1        0.0063
      3 C          62.4170   89.5225   10.0214 C.ar    1  UNL1        0.0581
      4 C          62.3422   88.2591   10.8265 C.ar    1  UNL1        0.2297
      5 N          62.9021   88.2220   12.2176 N.ar    1  UNL1       -0.2098
      6 C          63.5367   89.4483   12.8036 C.ar    1  UNL1        0.1020
      7 C          65.4519   92.5443   11.9298 C.2     1  UNL1       -0.0069
      8 C          64.2462   91.9380   12.5845 C.2     1  UNL1       -0.0014
      9 C          66.0865   93.7706   12.5159 C.3     1  UNL1        0.0939
     10 C          66.7881   93.6923   13.8394 C.3     1  UNL1        0.0262
     11 C          66.8106   96.6022    9.8313 C.3     1  UNL1        0.0946
     12 C          66.8776   95.2977   10.5686 C.2     1  UNL1        0.2232
     13 O          67.8029   94.2157   10.0960 O.2     1  UNL1       -0.2751
     14 N          66.0195   95.0751   11.7786 N.am    1  UNL1       -0.3022
     15 H          65.4122   95.7852   12.0888 H       1  UNL1        0.1497
     16 O          61.7075   87.0327   10.2405 O.3     1  UNL1       -0.4352
     17 C          62.2859   85.6788   10.5277 C.ar    1  UNL1        0.1582
     18 C          62.1200   85.0652   11.8864 C.ar    1  UNL1        0.0464
     19 C          62.6984   83.7113   12.1736 C.ar    1  UNL1        0.0513
     20 S          62.6949   82.8597   13.4084 S.2     1  UNL1       -0.0707
     21 C          63.4370   81.5931   13.1000 C.ar    1  UNL1        0.0886
     22 C          63.6752   80.4572   14.0502 C.3     1  UNL1        0.0594
     23 N          63.8991   81.6619   11.6746 N.ar    1  UNL1       -0.2427
     24 C          63.4427   82.9710   11.1020 C.ar    1  UNL1        0.0885
     25 C          63.6085   83.5847    9.7434 C.ar    1  UNL1        0.0341
     26 C          63.0301   84.9385    9.4563 C.ar    1  UNL1        0.0937
     27 CL         63.1960   85.5521    8.0975 Cl      1  UNL1       -0.0790
@<TRIPOS>BOND
     1    11    12    1
     2    12    13    2
     3    12    14   am
     4    14     9    1
     5     9    10    1
     6     9     7    1
     7     7     8    2
     8     8     1    1
     9     1     2   ar
    10     2     3   ar
    11     3     4   ar
    12     4    16    1
    13    16    17    1
    14    17    18   ar
    15    18    19   ar
    16    19    20   ar
    17    20    21   ar
    18    21    22    1
    19    21    23   ar
    20    23    24   ar
    21    24    25   ar
    22    25    26   ar
    23    26    27    1
    24     4     5   ar
    25     5     6   ar
    26     6     1   ar
    27    26    17   ar
    28    24    19   ar
    29    14    15    1
@<TRIPOS>MOLECULE
*****
 27 29 0 0 0
SMALL
GASTEIGER

@<TRIPOS>ATOM
      1 C          63.3313   86.5953   12.9190 C.ar    1  UNL1        0.0191
      2 C          64.0918   86.5421   14.2109 C.ar    1  UNL1        0.0063
      3 C          64.4900   87.8138   14.8996 C.ar    1  UNL1        0.0581
      4 C          64.1278   89.1385   14.2966 C.ar    1  UNL1        0.2297
      5 N          63.3673   89.1917   13.0047 N.ar    1  UNL1       -0.2098
      6 C          62.9691   87.9200   12.3160 C.ar    1  UNL1        0.1020
      7 C          63.7809   84.0948   12.3754 C.2     1  UNL1       -0.0069
      8 C          62.9331   85.3237   12.2302 C.2     1  UNL1       -0.0014
      9 C          63.3826   82.8233   11.6865 C.3     1  UNL1        0.0939
     10 C          64.1678   82.3316   10.5068 C.3     1  UNL1        0.0262
     11 C          60.9987   80.7283   14.0694 C.3     1  UNL1        0.0946
     12 C          62.1822   81.5082   13.5785 C.2     1  UNL1        0.2232
     13 O          63.3490   81.7531   14.4890 O.2     1  UNL1       -0.2751
     14 N          62.1990   82.0433   12.1773 N.am    1  UNL1       -0.3022
     15 H          61.4332   81.8826   11.5798 H       1  UNL1        0.1497
     16 O          64.5260   90.4102   14.9853 O.3     1  UNL1       -0.4352
     17 C          65.1533   91.5238   14.2001 C.ar    1  UNL1        0.1582
     18 C          64.9690   91.5892   12.7128 C.ar    1  UNL1        0.0464
     19 C          65.5963   92.7027   11.9277 C.ar    1  UNL1        0.0513
     20 S          65.5888   93.0261   10.4630 S.2     1  UNL1       -0.0707
     21 C          66.3958   94.2741   10.2598 C.ar    1  UNL1        0.0886
     22 C          66.6516   94.9548    8.9478 C.3     1  UNL1        0.0594
     23 N          66.9021   94.7219   11.5989 N.ar    1  UNL1       -0.2427
     24 C          66.4080   93.7507   12.6297 C.ar    1  UNL1        0.0885
     25 C          66.5923   93.6853   14.1169 C.ar    1  UNL1        0.0341
     26 C          65.9650   92.5717   14.9020 C.ar    1  UNL1        0.0937
     27 CL         66.1493   92.5063   16.3893 Cl      1  UNL1       -0.0790
@<TRIPOS>BOND
     1    11    12    1
     2    12    13    2
     3    12    14   am
     4    14     9    1
     5     9    10    1
     6     9     7    1
     7     7     8    2
     8     8     1    1
     9     1     2   ar
    10     2     3   ar
    11     3     4   ar
    12     4    16    1
    13    16    17    1
    14    17    18   ar
    15    18    19   ar
    16    19    20   ar
    17    20    21   ar
    18    21    22    1
    19    21    23   ar
    20    23    24   ar
    21    24    25   ar
    22    25    26   ar
    23    26    27    1
    24     4     5   ar
    25     5     6   ar
    26     6     1   ar
    27    26    17   ar
    28    24    19   ar
    29    14    15    1
@<TRIPOS>MOLECULE
*****
 27 29 0 0 0
SMALL
GASTEIGER

@<TRIPOS>ATOM
      1 C          64.7985   91.5389   12.5348 C.ar    1  UNL1        0.0191
      2 C          63.4972   90.7928   12.5430 C.ar    1  UNL1        0.0063
      3 C          63.1460   89.9103   13.7039 C.ar    1  UNL1        0.0581
      4 C          64.0961   89.7737   14.8566 C.ar    1  UNL1        0.2297
      5 N          65.3974   90.5198   14.8484 N.ar    1  UNL1       -0.2098
      6 C          65.7486   91.4023   13.6875 C.ar    1  UNL1        0.1020
      7 C          66.5880   92.7036   11.0545 C.2     1  UNL1       -0.0069
      8 C          65.1498   92.4214   11.3739 C.2     1  UNL1       -0.0014
      9 C          66.9392   93.5862    9.8936 C.3     1  UNL1        0.0939
     10 C          68.2645   93.4320    9.2082 C.3     1  UNL1        0.0262
     11 C          64.6902   96.8547    9.7979 C.3     1  UNL1        0.0946
     12 C          65.6643   95.8179   10.2735 C.2     1  UNL1        0.2232
     13 O          66.3378   95.9760   11.6045 O.2     1  UNL1       -0.2751
     14 N          65.9651   94.6230    9.4180 N.am    1  UNL1       -0.3022
     15 H          65.5231   94.5192    8.5445 H       1  UNL1        0.1497
     16 O          63.7449   88.8912   16.0176 O.3     1  UNL1       -0.4352
     17 C          63.6237   87.4087   15.8230 C.ar    1  UNL1        0.1582
     18 C          64.0772   86.7814   14.5381 C.ar    1  UNL1        0.0464
     19 C          63.9561   85.2990   14.3436 C.ar    1  UNL1        0.0513
     20 S          64.3161   84.4048   13.1943 S.2     1  UNL1       -0.0707
     21 C          63.9640   82.9972   13.5744 C.ar    1  UNL1        0.0886
     22 C          64.1559   81.7791   12.7203 C.3     1  UNL1        0.0594
     23 N          63.3864   83.0213   14.9585 N.ar    1  UNL1       -0.2427
     24 C          63.3815   84.4440   15.4339 C.ar    1  UNL1        0.0885
     25 C          62.9280   85.0713   16.7187 C.ar    1  UNL1        0.0341
     26 C          63.0492   86.5537   16.9132 C.ar    1  UNL1        0.0937
     27 CL         62.5957   87.1810   18.1982 Cl      1  UNL1       -0.0790
@<TRIPOS>BOND
     1    11    12    1
     2    12    13    2
     3    12    14   am
     4    14     9    1
     5     9    10    1
     6     9     7    1
     7     7     8    2
     8     8     1    1
     9     1     2   ar
    10     2     3   ar
    11     3     4   ar
    12     4    16    1
    13    16    17    1
    14    17    18   ar
    15    18    19   ar
    16    19    20   ar
    17    20    21   ar
    18    21    22    1
    19    21    23   ar
    20    23    24   ar
    21    24    25   ar
    22    25    26   ar
    23    26    27    1
    24     4     5   ar
    25     5     6   ar
    26     6     1   ar
    27    26    17   ar
    28    24    19   ar
    29    14    15    1
@<TRIPOS>MOLECULE
*****
 27 29 0 0 0
SMALL
GASTEIGER

@<TRIPOS>ATOM
      1 C          62.4102   86.3327   11.3046 C.ar    1  UNL1        0.0191
      2 C          61.7201   87.3268   10.4183 C.ar    1  UNL1        0.0063
      3 C          61.7847   88.7904   10.7402 C.ar    1  UNL1        0.0581
      4 C          62.5394   89.2600   11.9485 C.ar    1  UNL1        0.2297
      5 N          63.2295   88.2660   12.8348 N.ar    1  UNL1       -0.2098
      6 C          63.1649   86.8023   12.5129 C.ar    1  UNL1        0.1020
      7 C          63.1563   83.8897   11.7787 C.2     1  UNL1       -0.0069
      8 C          62.3457   84.8690   10.9828 C.2     1  UNL1       -0.0014
      9 C          63.0917   82.4260   11.4568 C.3     1  UNL1        0.0939
     10 C          64.0722   81.8261   10.4931 C.3     1  UNL1        0.0262
     11 C          61.0284   80.4644   14.2218 C.3     1  UNL1        0.0946
     12 C          62.0735   81.3281   13.5800 C.2     1  UNL1        0.2232
     13 O          63.1454   81.9576   14.4196 O.2     1  UNL1       -0.2751
     14 N          62.0467   81.5623   12.0986 N.am    1  UNL1       -0.3022
     15 H          61.3432   81.1492   11.5476 H       1  UNL1        0.1497
     16 O          62.6040   90.7236   12.2704 O.3     1  UNL1       -0.4352
     17 C          63.9257   91.3693   12.5643 C.ar    1  UNL1        0.1582
     18 C          64.4662   91.3682   13.9636 C.ar    1  UNL1        0.0464
     19 C          65.7878   92.0139   14.2575 C.ar    1  UNL1        0.0513
     20 S          66.5689   92.1680   15.5288 S.2     1  UNL1       -0.0707
     21 C          67.8328   92.9100   15.2092 C.ar    1  UNL1        0.0886
     22 C          68.9079   93.2821   16.1867 C.3     1  UNL1        0.0594
     23 N          67.8328   93.2144   13.7404 N.ar    1  UNL1       -0.2427
     24 C          66.5689   92.6606   13.1522 C.ar    1  UNL1        0.0885
     25 C          66.0284   92.6617   11.7530 C.ar    1  UNL1        0.0341
     26 C          64.7067   92.0160   11.4591 C.ar    1  UNL1        0.0937
     27 CL         64.1662   92.0171   10.0598 Cl      1  UNL1       -0.0790
@<TRIPOS>BOND
     1    11    12    1
     2    12    13    2
     3    12    14   am
     4    14     9    1
     5     9    10    1
     6     9     7    1
     7     7     8    2
     8     8     1    1
     9     1     2   ar
    10     2     3   ar
    11     3     4   ar
    12     4    16    1
    13    16    17    1
    14    17    18   ar
    15    18    19   ar
    16    19    20   ar
    17    20    21   ar
    18    21    22    1
    19    21    23   ar
    20    23    24   ar
    21    24    25   ar
    22    25    26   ar
    23    26    27    1
    24     4     5   ar
    25     5     6   ar
    26     6     1   ar
    27    26    17   ar
    28    24    19   ar
    29    14    15    1
@<TRIPOS>MOLECULE
*****
 27 29 0 0 0
SMALL
GASTEIGER

@<TRIPOS>ATOM
      1 C          59.4162   91.9908    4.3475 C.ar    1  UNL1        0.0191
      2 C          60.5915   91.2012    4.8426 C.ar    1  UNL1        0.0063
      3 C          60.3847   90.0790    5.8162 C.ar    1  UNL1        0.0581
      4 C          59.0025   89.7464    6.2947 C.ar    1  UNL1        0.2297
      5 N          57.8272   90.5359    5.7996 N.ar    1  UNL1       -0.2098
      6 C          58.0340   91.6581    4.8260 C.ar    1  UNL1        0.1020
      7 C          60.8080   93.0996    2.4545 C.2     1  UNL1       -0.0069
      8 C          59.6229   93.1130    3.3739 C.2     1  UNL1       -0.0014
      9 C          61.0147   94.2218    1.4809 C.3     1  UNL1        0.0939
     10 C          60.3562   95.5490    1.7155 C.3     1  UNL1        0.0262
     11 C          64.2331   93.9636   -0.8266 C.3     1  UNL1        0.0946
     12 C          63.3681   94.1686    0.3815 C.2     1  UNL1        0.2232
     13 O          63.9914   94.5251    1.6986 O.2     1  UNL1       -0.2751
     14 N          61.8797   94.0169    0.2728 N.am    1  UNL1       -0.3022
     15 H          61.4706   93.7829   -0.5916 H       1  UNL1        0.1497
     16 O          58.7957   88.6241    7.2683 O.3     1  UNL1       -0.4352
     17 C          59.8099   88.3674    8.3433 C.ar    1  UNL1        0.1582
     18 C          60.2261   89.4775    9.2623 C.ar    1  UNL1        0.0464
     19 C          61.2402   89.2208   10.3373 C.ar    1  UNL1        0.0513
     20 S          61.8408   90.1117   11.3840 S.2     1  UNL1       -0.0707
     21 C          62.8099   89.2955   12.1868 C.ar    1  UNL1        0.0886
     22 C          63.6357   89.7882   13.3381 C.3     1  UNL1        0.0594
     23 N          62.8083   87.9002   11.6364 N.ar    1  UNL1       -0.2427
     24 C          61.8381   87.8540   10.4933 C.ar    1  UNL1        0.0885
     25 C          61.4219   86.7439    9.5743 C.ar    1  UNL1        0.0341
     26 C          60.4078   87.0007    8.4993 C.ar    1  UNL1        0.0937
     27 CL         59.9916   85.8905    7.5803 Cl      1  UNL1       -0.0790
@<TRIPOS>BOND
     1    11    12    1
     2    12    13    2
     3    12    14   am
     4    14     9    1
     5     9    10    1
     6     9     7    1
     7     7     8    2
     8     8     1    1
     9     1     2   ar
    10     2     3   ar
    11     3     4   ar
    12     4    16    1
    13    16    17    1
    14    17    18   ar
    15    18    19   ar
    16    19    20   ar
    17    20    21   ar
    18    21    22    1
    19    21    23   ar
    20    23    24   ar
    21    24    25   ar
    22    25    26   ar
    23    26    27    1
    24     4     5   ar
    25     5     6   ar
    26     6     1   ar
    27    26    17   ar
    28    24    19   ar
    29    14    15    1
@<TRIPOS>MOLECULE
*****
 27 29 0 0 0
SMALL
GASTEIGER

@<TRIPOS>ATOM
      1 C          59.7108   92.0839    4.1524 C.ar    1  UNL1        0.0191
      2 C          58.3010   91.8640    4.6151 C.ar    1  UNL1        0.0063
      3 C          57.9983   90.7839    5.6110 C.ar    1  UNL1        0.0581
      4 C          59.1055   89.9237    6.1442 C.ar    1  UNL1        0.2297
      5 N          60.5153   90.1436    5.6815 N.ar    1  UNL1       -0.2098
      6 C          60.8179   91.2238    4.6856 C.ar    1  UNL1        0.1020
      7 C          59.5061   93.0506    1.7496 C.2     1  UNL1       -0.0069
      8 C          60.0135   93.1641    3.1566 C.2     1  UNL1       -0.0014
      9 C          59.8089   94.1308    0.7538 C.3     1  UNL1        0.0939
     10 C          59.9278   95.5560    1.2061 C.3     1  UNL1        0.0262
     11 C          58.9859   93.3574   -3.0507 C.3     1  UNL1        0.0946
     12 C          58.8020   93.7024   -1.6026 C.2     1  UNL1        0.2232
     13 O          57.4271   93.9642   -1.0627 O.2     1  UNL1       -0.2751
     14 N          59.9928   93.7857   -0.6943 N.am    1  UNL1       -0.3022
     15 H          60.8951   93.6139   -1.0487 H       1  UNL1        0.1497
     16 O          58.8028   88.8436    7.1400 O.3     1  UNL1       -0.4352
     17 C          59.7783   88.5418    8.2389 C.ar    1  UNL1        0.1582
     18 C          60.2767   89.6460    9.1236 C.ar    1  UNL1        0.0464
     19 C          61.2521   89.3442   10.2224 C.ar    1  UNL1        0.0513
     20 S          61.9139   90.2192   11.2453 S.2     1  UNL1       -0.0707
     21 C          62.8001   89.3541   12.0916 C.ar    1  UNL1        0.0886
     22 C          63.6510   89.8173   13.2368 C.3     1  UNL1        0.0594
     23 N          62.6860   87.9444   11.5918 N.ar    1  UNL1       -0.2427
     24 C          61.7293   87.9383   10.4365 C.ar    1  UNL1        0.0885
     25 C          61.2309   86.8342    9.5519 C.ar    1  UNL1        0.0341
     26 C          60.2555   87.1360    8.4531 C.ar    1  UNL1        0.0937
     27 CL         59.7571   86.0318    7.5684 Cl      1  UNL1       -0.0790
@<TRIPOS>BOND
     1    11    12    1
     2    12    13    2
     3    12    14   am
     4    14     9    1
     5     9    10    1
     6     9     7    1
     7     7     8    2
     8     8     1    1
     9     1     2   ar
    10     2     3   ar
    11     3     4   ar
    12     4    16    1
    13    16    17    1
    14    17    18   ar
    15    18    19   ar
    16    19    20   ar
    17    20    21   ar
    18    21    22    1
    19    21    23   ar
    20    23    24   ar
    21    24    25   ar
    22    25    26   ar
    23    26    27    1
    24     4     5   ar
    25     5     6   ar
    26     6     1   ar
    27    26    17   ar
    28    24    19   ar
    29    14    15    1
@<TRIPOS>MOLECULE
*****
 27 29 0 0 0
SMALL
GASTEIGER

@<TRIPOS>ATOM
      1 C          62.5367   86.0715   10.9608 C.ar    1  UNL1        0.0191
      2 C          62.0254   87.0546    9.9499 C.ar    1  UNL1        0.0063
      3 C          61.9586   88.5140   10.2900 C.ar    1  UNL1        0.0581
      4 C          62.4032   88.9903   11.6411 C.ar    1  UNL1        0.2297
      5 N          62.9146   88.0072   12.6520 N.ar    1  UNL1       -0.2098
      6 C          62.9813   86.5478   12.3119 C.ar    1  UNL1        0.1020
      7 C          63.1596   83.6352   11.6140 C.2     1  UNL1       -0.0069
      8 C          62.6035   84.6120   10.6208 C.2     1  UNL1       -0.0014
      9 C          63.2264   82.1758   11.2739 C.3     1  UNL1        0.0939
     10 C          64.2016   81.6898   10.2430 C.3     1  UNL1        0.0262
     11 C          61.6108   79.9168   14.1088 C.3     1  UNL1        0.0946
     12 C          62.5192   80.8902   13.4180 C.2     1  UNL1        0.2232
     13 O          63.6289   81.5515   14.1805 O.2     1  UNL1       -0.2751
     14 N          62.3179   81.2024   11.9647 N.am    1  UNL1       -0.3022
     15 H          61.5896   80.7684   11.4642 H       1  UNL1        0.1497
     16 O          62.3365   90.4497   11.9812 O.3     1  UNL1       -0.4352
     17 C          63.5807   91.2868   11.9414 C.ar    1  UNL1        0.1582
     18 C          63.9468   92.0271   10.6892 C.ar    1  UNL1        0.0464
     19 C          65.1909   92.8641   10.6494 C.ar    1  UNL1        0.0513
     20 S          65.8038   93.7003    9.5654 S.2     1  UNL1       -0.0707
     21 C          67.0605   94.3138   10.1078 C.ar    1  UNL1        0.0886
     22 C          67.9902   95.2244    9.3619 C.3     1  UNL1        0.0594
     23 N          67.2243   93.8568   11.5271 N.ar    1  UNL1       -0.2427
     24 C          66.0689   92.9608   11.8618 C.ar    1  UNL1        0.0885
     25 C          65.7027   92.2206   13.1140 C.ar    1  UNL1        0.0341
     26 C          64.4586   91.3835   13.1537 C.ar    1  UNL1        0.0937
     27 CL         64.0924   90.6433   14.4060 Cl      1  UNL1       -0.0790
@<TRIPOS>BOND
     1    11    12    1
     2    12    13    2
     3    12    14   am
     4    14     9    1
     5     9    10    1
     6     9     7    1
     7     7     8    2
     8     8     1    1
     9     1     2   ar
    10     2     3   ar
    11     3     4   ar
    12     4    16    1
    13    16    17    1
    14    17    18   ar
    15    18    19   ar
    16    19    20   ar
    17    20    21   ar
    18    21    22    1
    19    21    23   ar
    20    23    24   ar
    21    24    25   ar
    22    25    26   ar
    23    26    27    1
    24     4     5   ar
    25     5     6   ar
    26     6     1   ar
    27    26    17   ar
    28    24    19   ar
    29    14    15    1
@<TRIPOS>MOLECULE
*****
 27 29 0 0 0
SMALL
GASTEIGER

@<TRIPOS>ATOM
      1 C          63.1438   85.8403   12.7175 C.ar    1  UNL1        0.0191
      2 C          63.8958   86.7250   13.6671 C.ar    1  UNL1        0.0063
      3 C          63.7806   88.2163   13.5538 C.ar    1  UNL1        0.0581
      4 C          62.9133   88.8229   12.4909 C.ar    1  UNL1        0.2297
      5 N          62.1612   87.9382   11.5413 N.ar    1  UNL1       -0.2098
      6 C          62.2765   86.4469   11.6546 C.ar    1  UNL1        0.1020
      7 C          63.1221   83.4912   11.6080 C.2     1  UNL1       -0.0069
      8 C          63.2590   84.3490   12.8308 C.2     1  UNL1       -0.0014
      9 C          63.2373   81.9999   11.7214 C.3     1  UNL1        0.0939
     10 C          63.3517   81.3570   13.0717 C.3     1  UNL1        0.0262
     11 C          62.9022   78.8443    9.3382 C.3     1  UNL1        0.0946
     12 C          62.9014   79.6926   10.5752 C.2     1  UNL1        0.2232
     13 O          62.5638   79.0821   11.9032 O.2     1  UNL1       -0.2751
     14 N          63.2381   81.1515   10.4843 N.am    1  UNL1       -0.3022
     15 H          63.4596   81.5522    9.6128 H       1  UNL1        0.1497
     16 O          62.7980   90.3141   12.3775 O.3     1  UNL1       -0.4352
     17 C          63.9904   91.1817   12.6531 C.ar    1  UNL1        0.1582
     18 C          64.5668   91.2466   14.0365 C.ar    1  UNL1        0.0464
     19 C          65.7591   92.1141   14.3121 C.ar    1  UNL1        0.0513
     20 S          66.5400   92.3781   15.5652 S.2     1  UNL1       -0.0707
     21 C          67.6384   93.3438   15.2321 C.ar    1  UNL1        0.0886
     22 C          68.6596   93.8822   16.1898 C.3     1  UNL1        0.0594
     23 N          67.5364   93.6766   13.7730 N.ar    1  UNL1       -0.2427
     24 C          66.3749   92.9166   13.2044 C.ar    1  UNL1        0.0885
     25 C          65.7984   92.8515   11.8212 C.ar    1  UNL1        0.0341
     26 C          64.6061   91.9841   11.5456 C.ar    1  UNL1        0.0937
     27 CL         64.0296   91.9191   10.1622 Cl      1  UNL1       -0.0790
@<TRIPOS>BOND
     1    11    12    1
     2    12    13    2
     3    12    14   am
     4    14     9    1
     5     9    10    1
     6     9     7    1
     7     7     8    2
     8     8     1    1
     9     1     2   ar
    10     2     3   ar
    11     3     4   ar
    12     4    16    1
    13    16    17    1
    14    17    18   ar
    15    18    19   ar
    16    19    20   ar
    17    20    21   ar
    18    21    22    1
    19    21    23   ar
    20    23    24   ar
    21    24    25   ar
    22    25    26   ar
    23    26    27    1
    24     4     5   ar
    25     5     6   ar
    26     6     1   ar
    27    26    17   ar
    28    24    19   ar
    29    14    15    1
