@<TRIPOS>MOLECULE
*****
 34 36 0 0 0
SMALL
GASTEIGER

@<TRIPOS>ATOM
      1 C          63.5612   84.8637   13.6609 C.ar    1  UNL1        0.0053
      2 C          64.4655   85.3190   14.7677 C.ar    1  UNL1        0.0033
      3 C          64.8107   86.7723   14.9043 C.ar    1  UNL1        0.0382
      4 C          64.2515   87.7704   13.9341 C.ar    1  UNL1        0.1524
      5 C          63.3472   87.3151   12.8274 C.ar    1  UNL1        0.0881
      6 C          63.0021   85.8618   12.6908 C.ar    1  UNL1        0.0181
      7 N          62.7880   88.3132   11.8572 N.am    1  UNL1       -0.2531
      8 C          63.1331   89.7665   11.9938 C.2     1  UNL1        0.2656
      9 O          62.5739   90.7646   11.0237 O.2     1  UNL1       -0.2708
     10 C          64.0374   90.2218   13.1006 C.3     1  UNL1        0.2010
     11 O          64.5966   89.2238   14.0708 O.3     1  UNL1       -0.4727
     12 C          63.6693   82.6420   12.3183 C.ar    1  UNL1        0.0645
     13 N          63.3242   81.1887   12.1817 N.ar    1  UNL1       -0.2183
     14 C          62.5258   80.5036   13.2510 C.ar    1  UNL1        0.2145
     15 N          62.1807   79.0503   13.1143 N.pl3   1  UNL1       -0.3274
     16 N          62.0726   81.2719   14.4569 N.ar    1  UNL1       -0.1995
     17 C          62.4177   82.7253   14.5935 C.ar    1  UNL1        0.1293
     18 N          61.9645   83.4936   15.7995 N.pl3   1  UNL1       -0.3425
     19 C          63.2161   83.4103   13.5243 C.ar    1  UNL1        0.0449
     20 H          62.4781   78.5461   12.3228 H       1  UNL1        0.1452
     21 H          61.6567   78.6007   13.8161 H       1  UNL1        0.1452
     22 H          61.4405   83.0440   16.5013 H       1  UNL1        0.1437
     23 H          62.1910   84.4475   15.8892 H       1  UNL1        0.1437
     24 C          63.9512   83.3743    9.8416 C.3     1  UNL1        0.0067
     25 C          64.4677   83.3271   11.2490 C.3     1  UNL1        0.0460
     26 C          64.8450   91.1337   13.9760 C.3     1  UNL1        0.0491
     27 C          64.5484   91.2209   15.4439 C.3     1  UNL1        0.0042
     28 C          63.7587   91.5365   12.4345 C.3     1  UNL1        0.0491
     29 C          64.8954   92.3959   11.9661 C.3     1  UNL1        0.0042
     30 C          61.8837   87.8579   10.7505 C.3     1  UNL1        0.1010
     31 C          62.4665   87.2699    9.4996 C.3     1  UNL1        0.0539
     32 C          61.7013   86.2339    8.7307 C.3     1  UNL1        0.1440
     33 O          60.2068   86.1696    8.8415 O.3     1  UNL1       -0.3510
     34 C          59.3487   86.8270    7.8016 C.3     1  UNL1        0.1741
@<TRIPOS>BOND
     1    24    25    1
     2    25    12    1
     3    12    13   ar
     4    13    14   ar
     5    14    15    1
     6    14    16   ar
     7    16    17   ar
     8    17    18    1
     9    17    19   ar
    10    19     1    1
    11     1     2   ar
    12     2     3   ar
    13     3     4   ar
    14     4     5   ar
    15     5     6   ar
    16     5     7    1
    17     7    30    1
    18    30    31    1
    19    31    32    1
    20    32    33    1
    21    33    34    1
    22     7     8   am
    23     8     9    2
    24     8    10    1
    25    10    26    1
    26    26    27    1
    27    10    28    1
    28    28    29    1
    29    10    11    1
    30    19    12   ar
    31     6     1   ar
    32    11     4    1
    33    15    20    1
    34    15    21    1
    35    18    22    1
    36    18    23    1
@<TRIPOS>MOLECULE
*****
 34 36 0 0 0
SMALL
GASTEIGER

@<TRIPOS>ATOM
      1 C          62.4849   89.3622   11.9175 C.ar    1  UNL1        0.0053
      2 C          62.2892   89.0674   13.3752 C.ar    1  UNL1        0.0033
      3 C          63.1001   89.7986   14.4036 C.ar    1  UNL1        0.0382
      4 C          64.1066   90.8246   13.9745 C.ar    1  UNL1        0.1524
      5 C          64.3023   91.1195   12.5169 C.ar    1  UNL1        0.0881
      6 C          63.4914   90.3882   11.4884 C.ar    1  UNL1        0.0181
      7 N          65.3088   92.1455   12.0877 N.am    1  UNL1       -0.2531
      8 C          66.1196   92.8767   13.1162 C.2     1  UNL1        0.2656
      9 O          67.1261   93.9028   12.6870 O.2     1  UNL1       -0.2708
     10 C          65.9239   92.5819   14.5739 C.3     1  UNL1        0.2010
     11 O          64.9174   91.5559   15.0031 O.3     1  UNL1       -0.4727
     12 C          61.8188   87.1457   10.7371 C.ar    1  UNL1        0.0645
     13 N          61.0080   86.4144    9.7086 N.ar    1  UNL1       -0.2183
     14 C          60.0524   87.1684    8.8319 C.ar    1  UNL1        0.2145
     15 N          59.2417   86.4372    7.8034 N.pl3   1  UNL1       -0.3274
     16 N          59.9077   88.6537    8.9838 N.ar    1  UNL1       -0.1995
     17 C          60.7186   89.3849   10.0124 C.ar    1  UNL1        0.1293
     18 N          60.5739   90.8702   10.1643 N.pl3   1  UNL1       -0.3425
     19 C          61.6741   88.6309   10.8890 C.ar    1  UNL1        0.0449
     20 H          59.3367   85.4624    7.7037 H       1  UNL1        0.1452
     21 H          58.6145   86.9320    7.2280 H       1  UNL1        0.1452
     22 H          59.9468   91.3651    9.5889 H       1  UNL1        0.1437
     23 H          61.1061   91.3501   10.8393 H       1  UNL1        0.1437
     24 C          62.4856   84.9679   11.9871 C.3     1  UNL1        0.0067
     25 C          62.7743   86.3917   11.6137 C.3     1  UNL1        0.0460
     26 C          66.0989   92.6519   16.0620 C.3     1  UNL1        0.0491
     27 C          64.9330   92.3857   16.9676 C.3     1  UNL1        0.0042
     28 C          66.9912   93.6322   14.6616 C.3     1  UNL1        0.0491
     29 C          68.0659   93.5245   15.7024 C.3     1  UNL1        0.0042
     30 C          65.5045   92.4403   10.6301 C.3     1  UNL1        0.1010
     31 C          65.6910   93.8556   10.1696 C.3     1  UNL1        0.0539
     32 C          66.8881   94.2241    9.3441 C.3     1  UNL1        0.1440
     33 O          68.2478   93.7205    9.7282 O.3     1  UNL1       -0.3510
     34 C          68.7856   92.4653    9.1078 C.3     1  UNL1        0.1741
@<TRIPOS>BOND
     1    24    25    1
     2    25    12    1
     3    12    13   ar
     4    13    14   ar
     5    14    15    1
     6    14    16   ar
     7    16    17   ar
     8    17    18    1
     9    17    19   ar
    10    19     1    1
    11     1     2   ar
    12     2     3   ar
    13     3     4   ar
    14     4     5   ar
    15     5     6   ar
    16     5     7    1
    17     7    30    1
    18    30    31    1
    19    31    32    1
    20    32    33    1
    21    33    34    1
    22     7     8   am
    23     8     9    2
    24     8    10    1
    25    10    26    1
    26    26    27    1
    27    10    28    1
    28    28    29    1
    29    10    11    1
    30    19    12   ar
    31     6     1   ar
    32    11     4    1
    33    15    20    1
    34    15    21    1
    35    18    22    1
    36    18    23    1
@<TRIPOS>MOLECULE
*****
 34 36 0 0 0
SMALL
GASTEIGER

@<TRIPOS>ATOM
      1 C          63.3700   90.4286   12.3149 C.ar    1  UNL1        0.0053
      2 C          62.6594   91.2560   11.2852 C.ar    1  UNL1        0.0033
      3 C          61.8811   90.5863   10.1917 C.ar    1  UNL1        0.0382
      4 C          61.8135   89.0892   10.1279 C.ar    1  UNL1        0.1524
      5 C          62.5241   88.2618   11.1576 C.ar    1  UNL1        0.0881
      6 C          63.3024   88.9315   12.2511 C.ar    1  UNL1        0.0181
      7 N          62.4565   86.7647   11.0938 N.am    1  UNL1       -0.2531
      8 C          61.6783   86.0950   10.0004 C.2     1  UNL1        0.2656
      9 O          61.6107   84.5979    9.9366 O.2     1  UNL1       -0.2708
     10 C          60.9676   86.9224    8.9706 C.3     1  UNL1        0.2010
     11 O          61.0352   88.4195    9.0344 O.3     1  UNL1       -0.4727
     12 C          65.2638   92.0410   13.0660 C.ar    1  UNL1        0.0645
     13 N          66.0421   92.7107   14.1595 N.ar    1  UNL1       -0.2183
     14 C          65.7050   92.4377   15.5955 C.ar    1  UNL1        0.2145
     15 N          66.4833   93.1074   16.6889 N.pl3   1  UNL1       -0.3274
     16 N          64.5895   91.4951   15.9379 N.ar    1  UNL1       -0.1995
     17 C          63.8112   90.8254   14.8443 C.ar    1  UNL1        0.1293
     18 N          62.6958   89.8827   15.1867 N.pl3   1  UNL1       -0.3425
     19 C          64.1483   91.0983   13.4084 C.ar    1  UNL1        0.0449
     20 H          67.2154   93.7261   16.4642 H       1  UNL1        0.1452
     21 H          66.2620   92.9283   17.6314 H       1  UNL1        0.1452
     22 H          62.4745   89.7036   16.1292 H       1  UNL1        0.1437
     23 H          62.1850   89.4432   14.4690 H       1  UNL1        0.1437
     24 C          65.7484   93.7273   11.1499 C.3     1  UNL1        0.0067
     25 C          65.6009   92.3139   11.6301 C.3     1  UNL1        0.0460
     26 C          60.1327   87.2721    7.7744 C.3     1  UNL1        0.0491
     27 C          59.4524   88.6068    7.6989 C.3     1  UNL1        0.0042
     28 C          60.6100   85.5467    8.4914 C.3     1  UNL1        0.0491
     29 C          60.7508   85.1982    7.0393 C.3     1  UNL1        0.0042
     30 C          63.1672   85.9373   12.1235 C.3     1  UNL1        0.1010
     31 C          62.4031   84.9375   12.9401 C.3     1  UNL1        0.0539
     32 C          62.9069   83.5302   13.0661 C.3     1  UNL1        0.1440
     33 O          62.5867   82.7260   14.2912 O.3     1  UNL1       -0.3510
     34 C          61.7086   81.5146   14.1848 C.3     1  UNL1        0.1741
@<TRIPOS>BOND
     1    24    25    1
     2    25    12    1
     3    12    13   ar
     4    13    14   ar
     5    14    15    1
     6    14    16   ar
     7    16    17   ar
     8    17    18    1
     9    17    19   ar
    10    19     1    1
    11     1     2   ar
    12     2     3   ar
    13     3     4   ar
    14     4     5   ar
    15     5     6   ar
    16     5     7    1
    17     7    30    1
    18    30    31    1
    19    31    32    1
    20    32    33    1
    21    33    34    1
    22     7     8   am
    23     8     9    2
    24     8    10    1
    25    10    26    1
    26    26    27    1
    27    10    28    1
    28    28    29    1
    29    10    11    1
    30    19    12   ar
    31     6     1   ar
    32    11     4    1
    33    15    20    1
    34    15    21    1
    35    18    22    1
    36    18    23    1
@<TRIPOS>MOLECULE
*****
 34 36 0 0 0
SMALL
GASTEIGER

@<TRIPOS>ATOM
      1 C          62.4739   89.3573   12.0803 C.ar    1  UNL1        0.0053
      2 C          62.2872   89.0762   13.5418 C.ar    1  UNL1        0.0033
      3 C          63.1049   89.8164   14.5583 C.ar    1  UNL1        0.0382
      4 C          64.1093   90.8377   14.1134 C.ar    1  UNL1        0.1524
      5 C          64.2961   91.1188   12.6519 C.ar    1  UNL1        0.0881
      6 C          63.4784   90.3787   11.6353 C.ar    1  UNL1        0.0181
      7 N          65.3005   92.1402   12.2069 N.am    1  UNL1       -0.2531
      8 C          66.1182   92.8803   13.2235 C.2     1  UNL1        0.2656
      9 O          67.1227   93.9017   12.7785 O.2     1  UNL1       -0.2708
     10 C          65.9315   92.5992   14.6851 C.3     1  UNL1        0.2010
     11 O          64.9271   91.5779   15.1300 O.3     1  UNL1       -0.4727
     12 C          60.5344   89.3138   10.3521 C.ar    1  UNL1        0.0645
     13 N          59.7167   88.5737    9.3355 N.ar    1  UNL1       -0.2183
     14 C          60.0207   87.1369    9.0304 C.ar    1  UNL1        0.2145
     15 N          59.2030   86.3968    8.0138 N.pl3   1  UNL1       -0.3274
     16 N          61.1425   86.4402    9.7419 N.ar    1  UNL1       -0.1995
     17 C          61.9602   87.1804   10.7585 C.ar    1  UNL1        0.1293
     18 N          63.0820   86.4837   11.4700 N.pl3   1  UNL1       -0.3425
     19 C          61.6562   88.6172   11.0636 C.ar    1  UNL1        0.0449
     20 H          58.4667   86.8540    7.5468 H       1  UNL1        0.1452
     21 H          59.4025   85.4537    7.8135 H       1  UNL1        0.1452
     22 H          63.2815   85.5406   11.2698 H       1  UNL1        0.1437
     23 H          63.6187   86.9695   12.1373 H       1  UNL1        0.1437
     24 C          59.0898   91.0991   11.5670 C.3     1  UNL1        0.0067
     25 C          60.2304   90.7507   10.6572 C.3     1  UNL1        0.0460
     26 C          66.1159   92.6828   16.1714 C.3     1  UNL1        0.0491
     27 C          64.9624   92.3989   17.0873 C.3     1  UNL1        0.0042
     28 C          67.0000   93.6496   14.7563 C.3     1  UNL1        0.0491
     29 C          68.1410   93.4948   15.7176 C.3     1  UNL1        0.0042
     30 C          65.4873   92.4213   10.7454 C.3     1  UNL1        0.1010
     31 C          66.8686   92.4824   10.1639 C.3     1  UNL1        0.0539
     32 C          67.2371   93.5893    9.2209 C.3     1  UNL1        0.1440
     33 O          67.7987   94.8736    9.7549 O.3     1  UNL1       -0.3510
     34 C          66.8781   95.9999   10.1211 C.3     1  UNL1        0.1741
@<TRIPOS>BOND
     1    24    25    1
     2    25    12    1
     3    12    13   ar
     4    13    14   ar
     5    14    15    1
     6    14    16   ar
     7    16    17   ar
     8    17    18    1
     9    17    19   ar
    10    19     1    1
    11     1     2   ar
    12     2     3   ar
    13     3     4   ar
    14     4     5   ar
    15     5     6   ar
    16     5     7    1
    17     7    30    1
    18    30    31    1
    19    31    32    1
    20    32    33    1
    21    33    34    1
    22     7     8   am
    23     8     9    2
    24     8    10    1
    25    10    26    1
    26    26    27    1
    27    10    28    1
    28    28    29    1
    29    10    11    1
    30    19    12   ar
    31     6     1   ar
    32    11     4    1
    33    15    20    1
    34    15    21    1
    35    18    22    1
    36    18    23    1
@<TRIPOS>MOLECULE
*****
 34 36 0 0 0
SMALL
GASTEIGER

@<TRIPOS>ATOM
      1 C          64.1701   91.0010   12.2329 C.ar    1  UNL1        0.0053
      2 C          63.6176   91.8009   11.0907 C.ar    1  UNL1        0.0033
      3 C          62.7000   91.1534   10.0963 C.ar    1  UNL1        0.0382
      4 C          62.3349   89.7060   10.2443 C.ar    1  UNL1        0.1524
      5 C          62.8875   88.9061   11.3865 C.ar    1  UNL1        0.0881
      6 C          63.8051   89.5536   12.3809 C.ar    1  UNL1        0.0181
      7 N          62.5224   87.4588   11.5345 N.am    1  UNL1       -0.2531
      8 C          61.6048   86.8113   10.5402 C.2     1  UNL1        0.2656
      9 O          61.2398   85.3639   10.6881 O.2     1  UNL1       -0.2708
     10 C          61.0522   87.6112    9.3978 C.3     1  UNL1        0.2010
     11 O          61.4172   89.0585    9.2499 O.3     1  UNL1       -0.4727
     12 C          64.8853   91.4179   14.6956 C.ar    1  UNL1        0.0645
     13 N          65.8029   92.0653   15.6900 N.ar    1  UNL1       -0.2183
     14 C          66.9230   92.9433   15.2161 C.ar    1  UNL1        0.2145
     15 N          67.8406   93.5907   16.2105 N.pl3   1  UNL1       -0.3274
     16 N          67.1255   93.1739   13.7478 N.ar    1  UNL1       -0.1995
     17 C          66.2078   92.5264   12.7534 C.ar    1  UNL1        0.1293
     18 N          66.4102   92.7570   11.2851 N.pl3   1  UNL1       -0.3425
     19 C          65.0878   91.6484   13.2273 C.ar    1  UNL1        0.0449
     20 H          67.7077   93.4394   17.1742 H       1  UNL1        0.1452
     21 H          68.5757   94.1670   15.8995 H       1  UNL1        0.1452
     22 H          67.1454   93.3333   10.9741 H       1  UNL1        0.1437
     23 H          65.8080   92.3321   10.6325 H       1  UNL1        0.1437
     24 C          63.4555   90.4441   16.6340 C.3     1  UNL1        0.0067
     25 C          63.7652   90.5398   15.1695 C.3     1  UNL1        0.0460
     26 C          60.2797   87.9492    8.1573 C.3     1  UNL1        0.0491
     27 C          59.7134   89.3267    7.9784 C.3     1  UNL1        0.0042
     28 C          60.4189   86.2812    9.1149 C.3     1  UNL1        0.0491
     29 C          60.1173   85.8796    7.7015 C.3     1  UNL1        0.0042
     30 C          63.0750   86.6589   12.6767 C.3     1  UNL1        0.1010
     31 C          63.3155   85.1872   12.5147 C.3     1  UNL1        0.0539
     32 C          62.8794   84.2334   13.5872 C.3     1  UNL1        0.1440
     33 O          62.4598   82.8394   13.2259 O.3     1  UNL1       -0.3510
     34 C          63.2790   82.0364   12.2593 C.3     1  UNL1        0.1741
@<TRIPOS>BOND
     1    24    25    1
     2    25    12    1
     3    12    13   ar
     4    13    14   ar
     5    14    15    1
     6    14    16   ar
     7    16    17   ar
     8    17    18    1
     9    17    19   ar
    10    19     1    1
    11     1     2   ar
    12     2     3   ar
    13     3     4   ar
    14     4     5   ar
    15     5     6   ar
    16     5     7    1
    17     7    30    1
    18    30    31    1
    19    31    32    1
    20    32    33    1
    21    33    34    1
    22     7     8   am
    23     8     9    2
    24     8    10    1
    25    10    26    1
    26    26    27    1
    27    10    28    1
    28    28    29    1
    29    10    11    1
    30    19    12   ar
    31     6     1   ar
    32    11     4    1
    33    15    20    1
    34    15    21    1
    35    18    22    1
    36    18    23    1
@<TRIPOS>MOLECULE
*****
 34 36 0 0 0
SMALL
GASTEIGER

@<TRIPOS>ATOM
      1 C          63.4551   83.6670   12.4850 C.ar    1  UNL1        0.0053
      2 C          64.0724   83.7913   13.8464 C.ar    1  UNL1        0.0033
      3 C          64.2595   85.1453   14.4641 C.ar    1  UNL1        0.0382
      4 C          63.8293   86.3749   13.7205 C.ar    1  UNL1        0.1524
      5 C          63.2120   86.2506   12.3592 C.ar    1  UNL1        0.0881
      6 C          63.0248   84.8966   11.7414 C.ar    1  UNL1        0.0181
      7 N          62.7817   87.4802   11.6156 N.am    1  UNL1       -0.2531
      8 C          62.9688   88.8342   12.2333 C.2     1  UNL1        0.2656
      9 O          62.5386   90.0638   11.4897 O.2     1  UNL1       -0.2708
     10 C          63.5862   88.9586   13.5948 C.3     1  UNL1        0.2010
     11 O          64.0165   87.7290   14.3384 O.3     1  UNL1       -0.4727
     12 C          62.5330   81.2416   12.6169 C.ar    1  UNL1        0.0645
     13 N          62.3459   79.8876   11.9991 N.ar    1  UNL1       -0.2183
     14 C          62.8936   79.6049   10.6315 C.ar    1  UNL1        0.2145
     15 N          62.7064   78.2510   10.0138 N.pl3   1  UNL1       -0.3274
     16 N          63.6285   80.6763    9.8818 N.ar    1  UNL1       -0.1995
     17 C          63.8156   82.0304   10.4996 C.ar    1  UNL1        0.1293
     18 N          64.5505   83.1017    9.7499 N.pl3   1  UNL1       -0.3425
     19 C          63.2679   82.3129   11.8671 C.ar    1  UNL1        0.0449
     20 H          62.2241   77.5478   10.5058 H       1  UNL1        0.1452
     21 H          63.0659   78.0655    9.1162 H       1  UNL1        0.1452
     22 H          64.9100   82.9163    8.8524 H       1  UNL1        0.1437
     23 H          64.6733   83.9904   10.1554 H       1  UNL1        0.1437
     24 C          60.6863   80.9092   14.4139 C.3     1  UNL1        0.0067
     25 C          61.9853   81.5242   13.9845 C.3     1  UNL1        0.0460
     26 C          64.1184   89.5856   14.8492 C.3     1  UNL1        0.0491
     27 C          63.3718   89.4292   16.1409 C.3     1  UNL1        0.0042
     28 C          63.3408   90.4059   13.2868 C.3     1  UNL1        0.0491
     29 C          64.4823   91.3790   13.2974 C.3     1  UNL1        0.0042
     30 C          62.1644   87.3558   10.2542 C.3     1  UNL1        0.1010
     31 C          60.6939   87.0924   10.1187 C.3     1  UNL1        0.0539
     32 C          60.1653   86.4012    8.8968 C.3     1  UNL1        0.1440
     33 O          61.0212   86.2870    7.6704 O.3     1  UNL1       -0.3510
     34 C          61.0400   85.0091    6.8852 C.3     1  UNL1        0.1741
@<TRIPOS>BOND
     1    24    25    1
     2    25    12    1
     3    12    13   ar
     4    13    14   ar
     5    14    15    1
     6    14    16   ar
     7    16    17   ar
     8    17    18    1
     9    17    19   ar
    10    19     1    1
    11     1     2   ar
    12     2     3   ar
    13     3     4   ar
    14     4     5   ar
    15     5     6   ar
    16     5     7    1
    17     7    30    1
    18    30    31    1
    19    31    32    1
    20    32    33    1
    21    33    34    1
    22     7     8   am
    23     8     9    2
    24     8    10    1
    25    10    26    1
    26    26    27    1
    27    10    28    1
    28    28    29    1
    29    10    11    1
    30    19    12   ar
    31     6     1   ar
    32    11     4    1
    33    15    20    1
    34    15    21    1
    35    18    22    1
    36    18    23    1
@<TRIPOS>MOLECULE
*****
 34 36 0 0 0
SMALL
GASTEIGER

@<TRIPOS>ATOM
      1 C          62.4882   89.5663   10.8719 C.ar    1  UNL1        0.0053
      2 C          63.3296   90.5623   10.1303 C.ar    1  UNL1        0.0033
      3 C          64.2421   91.4829   10.8850 C.ar    1  UNL1        0.0382
      4 C          64.3132   91.4076   12.3814 C.ar    1  UNL1        0.1524
      5 C          63.4718   90.4117   13.1231 C.ar    1  UNL1        0.0881
      6 C          62.5593   89.4910   12.3683 C.ar    1  UNL1        0.0181
      7 N          63.5429   90.3364   14.6195 N.am    1  UNL1       -0.2531
      8 C          64.4554   91.2570   15.3743 C.2     1  UNL1        0.2656
      9 O          64.5265   91.1817   16.8707 O.2     1  UNL1       -0.2708
     10 C          65.2968   92.2531   14.6326 C.3     1  UNL1        0.2010
     11 O          65.2257   92.3284   13.1362 O.3     1  UNL1       -0.4727
     12 C          61.7838   87.1616   10.1852 C.ar    1  UNL1        0.0645
     13 N          60.8714   86.2409    9.4305 N.ar    1  UNL1       -0.2183
     14 C          59.7507   86.8041    8.6077 C.ar    1  UNL1        0.2145
     15 N          58.8382   85.8834    7.8530 N.pl3   1  UNL1       -0.3274
     16 N          59.5426   88.2880    8.5396 N.ar    1  UNL1       -0.1995
     17 C          60.4551   89.2088    9.2944 C.ar    1  UNL1        0.1293
     18 N          60.2470   90.6927    9.2263 N.pl3   1  UNL1       -0.3425
     19 C          61.5757   88.6456   10.1171 C.ar    1  UNL1        0.0449
     20 H          58.9748   84.9094    7.8977 H       1  UNL1        0.1452
     21 H          58.1027   86.2530    7.3129 H       1  UNL1        0.1452
     22 H          59.5115   91.0624    8.6863 H       1  UNL1        0.1437
     23 H          60.8459   91.2970    9.7217 H       1  UNL1        0.1437
     24 C          62.6256   85.5316   12.0249 C.3     1  UNL1        0.0067
     25 C          62.9045   86.5984   11.0080 C.3     1  UNL1        0.0460
     26 C          66.2817   93.3559   14.3802 C.3     1  UNL1        0.0491
     27 C          66.3841   93.9725   13.0166 C.3     1  UNL1        0.0042
     28 C          65.7100   92.5608   16.0414 C.3     1  UNL1        0.0491
     29 C          67.1518   92.8250   16.3594 C.3     1  UNL1        0.0042
     30 C          62.7015   89.3404   15.3612 C.3     1  UNL1        0.1010
     31 C          63.3494   88.1741   16.0467 C.3     1  UNL1        0.0539
     32 C          62.7499   87.6150   17.3030 C.3     1  UNL1        0.1440
     33 O          61.8492   86.4174   17.2358 O.3     1  UNL1       -0.3510
     34 C          62.2816   85.1952   16.4813 C.3     1  UNL1        0.1741
@<TRIPOS>BOND
     1    24    25    1
     2    25    12    1
     3    12    13   ar
     4    13    14   ar
     5    14    15    1
     6    14    16   ar
     7    16    17   ar
     8    17    18    1
     9    17    19   ar
    10    19     1    1
    11     1     2   ar
    12     2     3   ar
    13     3     4   ar
    14     4     5   ar
    15     5     6   ar
    16     5     7    1
    17     7    30    1
    18    30    31    1
    19    31    32    1
    20    32    33    1
    21    33    34    1
    22     7     8   am
    23     8     9    2
    24     8    10    1
    25    10    26    1
    26    26    27    1
    27    10    28    1
    28    28    29    1
    29    10    11    1
    30    19    12   ar
    31     6     1   ar
    32    11     4    1
    33    15    20    1
    34    15    21    1
    35    18    22    1
    36    18    23    1
@<TRIPOS>MOLECULE
*****
 34 36 0 0 0
SMALL
GASTEIGER

@<TRIPOS>ATOM
      1 C          62.4735   89.8473   10.6393 C.ar    1  UNL1        0.0053
      2 C          63.2639   90.8515    9.8540 C.ar    1  UNL1        0.0033
      3 C          64.2347   91.7553   10.5544 C.ar    1  UNL1        0.0382
      4 C          64.4150   91.6550   12.0401 C.ar    1  UNL1        0.1524
      5 C          63.6246   90.6508   12.8255 C.ar    1  UNL1        0.0881
      6 C          62.6538   89.7470   12.1251 C.ar    1  UNL1        0.0181
      7 N          63.8049   90.5505   14.3112 N.am    1  UNL1       -0.2531
      8 C          64.7757   91.4543   15.0116 C.2     1  UNL1        0.2656
      9 O          64.9560   91.3540   16.4973 O.2     1  UNL1       -0.2708
     10 C          65.5662   92.4586   14.2263 C.3     1  UNL1        0.2010
     11 O          65.3858   92.5589   12.7405 O.3     1  UNL1       -0.4727
     12 C          60.0621   89.3425    9.8144 C.ar    1  UNL1        0.0645
     13 N          59.0912   88.4387    9.1141 N.ar    1  UNL1       -0.2183
     14 C          59.5610   87.1356    8.5382 C.ar    1  UNL1        0.2145
     15 N          58.5901   86.2318    7.8378 N.pl3   1  UNL1       -0.3274
     16 N          61.0015   86.7365    8.6627 N.ar    1  UNL1       -0.1995
     17 C          61.9724   87.6405    9.3631 C.ar    1  UNL1        0.1293
     18 N          63.4129   87.2414    9.4876 N.pl3   1  UNL1       -0.3425
     19 C          61.5026   88.9434    9.9389 C.ar    1  UNL1        0.0449
     20 H          57.6446   86.4938    7.7561 H       1  UNL1        0.1452
     21 H          58.8984   85.3766    7.4599 H       1  UNL1        0.1452
     22 H          63.7212   86.3862    9.1096 H       1  UNL1        0.1437
     23 H          64.0501   87.8346    9.9473 H       1  UNL1        0.1437
     24 C          58.9936   90.6854   11.7651 C.3     1  UNL1        0.0067
     25 C          59.5923   90.6455   10.3903 C.3     1  UNL1        0.0460
     26 C          66.5363   93.5609   13.9200 C.3     1  UNL1        0.0491
     27 C          66.3845   94.3658   12.6633 C.3     1  UNL1        0.0042
     28 C          66.0834   92.7411   15.6056 C.3     1  UNL1        0.0491
     29 C          67.5368   93.0485   15.8132 C.3     1  UNL1        0.0042
     30 C          63.0145   89.5463   15.0965 C.3     1  UNL1        0.1010
     31 C          63.6908   88.3281   15.6520 C.3     1  UNL1        0.0539
     32 C          64.4254   87.3947   14.7358 C.3     1  UNL1        0.1440
     33 O          63.7541   86.1487   14.2391 O.3     1  UNL1       -0.3510
     34 C          64.4566   84.8272   14.3396 C.3     1  UNL1        0.1741
@<TRIPOS>BOND
     1    24    25    1
     2    25    12    1
     3    12    13   ar
     4    13    14   ar
     5    14    15    1
     6    14    16   ar
     7    16    17   ar
     8    17    18    1
     9    17    19   ar
    10    19     1    1
    11     1     2   ar
    12     2     3   ar
    13     3     4   ar
    14     4     5   ar
    15     5     6   ar
    16     5     7    1
    17     7    30    1
    18    30    31    1
    19    31    32    1
    20    32    33    1
    21    33    34    1
    22     7     8   am
    23     8     9    2
    24     8    10    1
    25    10    26    1
    26    26    27    1
    27    10    28    1
    28    28    29    1
    29    10    11    1
    30    19    12   ar
    31     6     1   ar
    32    11     4    1
    33    15    20    1
    34    15    21    1
    35    18    22    1
    36    18    23    1
