@<TRIPOS>MOLECULE
*****
 62 69 0 0 0
SMALL
GASTEIGER

@<TRIPOS>ATOM
      1 N          65.7650   89.9198   13.9742 N.3     1  UNL1       -0.1862
      2 C          66.2002   88.7452   14.7992 C.3     1  UNL1        0.1775
      3 C          65.4014   87.4757   14.7768 C.2     1  UNL1        0.2452
      4 O          65.8366   86.3010   15.6019 O.2     1  UNL1       -0.2732
      5 N          64.1674   87.3810   13.9293 N.am    1  UNL1       -0.2541
      6 C          63.3686   86.1116   13.9069 C.3     1  UNL1        0.1577
      7 C          62.1346   86.0168   13.0595 C.2     1  UNL1        0.2445
      8 O          61.3358   84.7474   13.0371 O.2     1  UNL1       -0.2731
      9 N          61.6993   87.1915   12.2344 N.am    1  UNL1       -0.2705
     10 C          62.4981   88.4609   12.2568 C.3     1  UNL1        0.1359
     11 C          63.7322   88.5557   13.1043 C.3     1  UNL1        0.1908
     12 N          64.5309   89.8251   13.1267 N.am    1  UNL1       -0.1863
     13 C          64.0957   90.9998   12.3017 C.2     1  UNL1        0.3191
     14 O          62.8617   90.9050   11.4542 O.2     1  UNL1       -0.2512
     15 N          64.8945   92.2692   12.3241 N.am    1  UNL1       -0.2836
     16 H          65.7044   92.3314   12.8803 H       1  UNL1        0.1513
     17 C          66.5637   91.1892   13.9966 C.3     1  UNL1        0.1188
     18 C          67.0678   92.7717   15.9946 C.2     1  UNL1       -0.0034
     19 C          67.3845   91.5377   15.2027 C.2     1  UNL1       -0.0071
     20 C          63.8038   84.9369   14.7319 C.3     1  UNL1        0.0556
     21 C          63.4743   83.5434   14.2852 C.ar    1  UNL1       -0.0198
     22 C          62.3233   82.8091   14.9064 C.ar    1  UNL1       -0.0011
     23 C          61.9938   81.4156   14.4597 C.ar    1  UNL1        0.0363
     24 C          62.8154   80.7563   13.3918 C.ar    1  UNL1        0.1337
     25 O          62.4859   79.3628   12.9451 O.3     1  UNL1       -0.5055
     26 C          63.9665   81.4906   12.7706 C.ar    1  UNL1        0.0363
     27 C          64.2960   82.8842   13.2173 C.ar    1  UNL1       -0.0011
     28 H          61.7669   78.9041   13.3332 H       1  UNL1        0.2922
     29 C          60.4653   87.0968   11.3870 C.3     1  UNL1        0.1217
     30 C          60.5745   87.1667    9.8925 C.ar    1  UNL1        0.0135
     31 C          61.0364   85.9684    9.1174 C.ar    1  UNL1       -0.0012
     32 C          61.1456   86.0383    7.6230 C.ar    1  UNL1       -0.0002
     33 C          60.7930   87.3065    6.9038 C.ar    1  UNL1        0.0016
     34 C          60.3311   88.5048    7.6789 C.ar    1  UNL1        0.0214
     35 C          59.9177   89.8807    7.2479 C.ar    1  UNL1        0.0722
     36 C          59.5529   90.6612    8.4758 C.ar    1  UNL1        0.0805
     37 N          59.7409   89.7676    9.6657 N.ar    1  UNL1       -0.3241
     38 C          59.4917   90.1411   11.0969 C.3     1  UNL1        0.1305
     39 C          60.2219   88.4349    9.1733 C.ar    1  UNL1        0.0577
     40 C          59.8762   90.3873    5.8365 C.2     1  UNL1        0.2510
     41 O          58.6972   90.0770    4.9626 O.2     1  UNL1       -0.2698
     42 N          61.0138   91.2041    5.2991 N.am    1  UNL1       -0.2791
     43 H          61.7876   91.4077    5.8727 H       1  UNL1        0.1552
     44 C          60.9725   91.7106    3.8879 C.ar    1  UNL1        0.0701
     45 C          62.1580   91.5223    2.9885 C.ar    1  UNL1        0.0191
     46 C          62.1168   92.0288    1.5772 C.ar    1  UNL1        0.0356
     47 C          60.8899   92.7237    1.0653 C.ar    1  UNL1        0.1318
     48 N          59.7044   92.9120    1.9648 N.ar    1  UNL1       -0.2279
     49 C          59.7456   92.4055    3.3760 C.ar    1  UNL1        0.1149
     50 N          60.8486   93.2302   -0.3459 N.pl3   1  UNL1       -0.2932
     51 C          59.6494   92.9590   -1.2053 C.3     1  UNL1        0.0922
     52 C          59.6080   93.4655   -2.6166 C.3     1  UNL1        0.0215
     53 C          60.7657   94.2433   -3.1685 C.3     1  UNL1        0.0035
     54 C          61.9649   94.5146   -2.3092 C.3     1  UNL1        0.0215
     55 C          62.0063   94.0080   -0.8979 C.3     1  UNL1        0.0922
     56 C          64.4593   93.4439   11.4991 C.3     1  UNL1        0.1177
     57 C          65.4471   94.1479   10.6167 C.ar    1  UNL1       -0.0025
     58 C          65.3075   95.6189   10.3591 C.ar    1  UNL1       -0.0026
     59 C          66.2953   96.3229    9.4768 C.ar    1  UNL1       -0.0003
     60 C          67.4228   95.5559    8.8520 C.ar    1  UNL1       -0.0000
     61 C          67.5625   94.0847    9.1096 C.ar    1  UNL1       -0.0003
     62 C          66.5746   93.3807    9.9920 C.ar    1  UNL1       -0.0026
@<TRIPOS>BOND
     1    18    19    2
     2    19    17    1
     3    17     1    1
     4     1     2    1
     5     2     3    1
     6     3     4    2
     7     3     5   am
     8     5     6    1
     9     6    20    1
    10    20    21    1
    11    21    22   ar
    12    22    23   ar
    13    23    24   ar
    14    24    25    1
    15    24    26   ar
    16    26    27   ar
    17     6     7    1
    18     7     8    2
    19     7     9   am
    20     9    29    1
    21    29    30    1
    22    30    31   ar
    23    31    32   ar
    24    32    33   ar
    25    33    34   ar
    26    34    35   ar
    27    35    40    1
    28    40    41    2
    29    40    42   am
    30    42    44    1
    31    44    45   ar
    32    45    46   ar
    33    46    47   ar
    34    47    50    1
    35    50    51    1
    36    51    52    1
    37    52    53    1
    38    53    54    1
    39    54    55    1
    40    47    48   ar
    41    48    49   ar
    42    35    36   ar
    43    36    37   ar
    44    37    38    1
    45    37    39   ar
    46     9    10    1
    47    11    10    1
    48    11    12    1
    49    12    13   am
    50    13    14    2
    51    13    15   am
    52    15    56    1
    53    56    57    1
    54    57    58   ar
    55    58    59   ar
    56    59    60   ar
    57    60    61   ar
    58    61    62   ar
    59    12     1    1
    60    62    57   ar
    61    11     5    1
    62    27    21   ar
    63    39    30   ar
    64    39    34   ar
    65    49    44   ar
    66    55    50    1
    67    25    28    1
    68    42    43    1
    69    15    16    1
@<TRIPOS>MOLECULE
*****
 62 69 0 0 0
SMALL
GASTEIGER

@<TRIPOS>ATOM
      1 N          63.9603   90.0322   12.1130 N.3     1  UNL1       -0.1862
      2 C          63.7132   88.6327   12.5929 C.3     1  UNL1        0.1775
      3 C          62.6985   87.7709   11.9017 C.2     1  UNL1        0.2452
      4 O          62.4514   86.3714   12.3818 O.2     1  UNL1       -0.2732
      5 N          61.9309   88.3086   10.7306 N.am    1  UNL1       -0.2541
      6 C          60.9162   87.4468   10.0394 C.3     1  UNL1        0.1577
      7 C          60.1487   87.9845    8.8682 C.2     1  UNL1        0.2445
      8 O          59.1340   87.1227    8.1770 O.2     1  UNL1       -0.2731
      9 N          60.3957   89.3840    8.3882 N.am    1  UNL1       -0.2705
     10 C          61.4104   90.2458    9.0794 C.3     1  UNL1        0.1359
     11 C          62.1780   89.7081   10.2506 C.3     1  UNL1        0.1908
     12 N          63.1927   90.5698   10.9418 N.am    1  UNL1       -0.1863
     13 C          63.4398   91.9694   10.4618 C.2     1  UNL1        0.3191
     14 O          62.6722   92.5071    9.2906 O.2     1  UNL1       -0.2512
     15 N          64.4545   92.8311   11.1530 N.am    1  UNL1       -0.2836
     16 H          64.9583   92.4782   11.9217 H       1  UNL1        0.1513
     17 C          64.9750   90.8939   12.8042 C.3     1  UNL1        0.1188
     18 C          65.8639   91.8485   15.0511 C.2     1  UNL1       -0.0034
     19 C          65.2078   90.7429   14.2783 C.2     1  UNL1       -0.0071
     20 C          60.6691   86.0474   10.5193 C.3     1  UNL1        0.0556
     21 C          61.7518   85.0149   10.4103 C.ar    1  UNL1       -0.0198
     22 C          61.9210   83.9886   11.4909 C.ar    1  UNL1       -0.0011
     23 C          63.0037   82.9561   11.3818 C.ar    1  UNL1        0.0363
     24 C          63.9171   82.9500   10.1921 C.ar    1  UNL1        0.1337
     25 O          64.9997   81.9175   10.0830 O.3     1  UNL1       -0.5055
     26 C          63.7479   83.9764    9.1113 C.ar    1  UNL1        0.0363
     27 C          62.6652   85.0088    9.2204 C.ar    1  UNL1       -0.0011
     28 H          65.1054   81.2764   10.7581 H       1  UNL1        0.2922
     29 C          59.6282   89.9217    7.2170 C.3     1  UNL1        0.1217
     30 C          60.3603   90.4899    6.0375 C.ar    1  UNL1        0.0135
     31 C          61.8550   90.3887    5.9627 C.ar    1  UNL1       -0.0012
     32 C          62.5870   90.9568    4.7832 C.ar    1  UNL1       -0.0002
     33 C          61.8244   91.6262    3.6785 C.ar    1  UNL1        0.0016
     34 C          60.3297   91.7274    3.7533 C.ar    1  UNL1        0.0214
     35 C          59.3165   92.3261    2.8234 C.ar    1  UNL1        0.0722
     36 C          57.9582   92.1280    3.4281 C.ar    1  UNL1        0.0805
     37 N          58.1319   91.4068    4.7318 N.ar    1  UNL1       -0.3241
     38 C          57.0330   91.0040    5.6698 C.3     1  UNL1        0.1305
     39 C          59.5976   91.1593    4.9328 C.ar    1  UNL1        0.0577
     40 C          59.6100   93.0040    1.5178 C.2     1  UNL1        0.2510
     41 O          59.7143   94.4991    1.4558 O.2     1  UNL1       -0.2698
     42 N          59.7993   92.1867    0.2743 N.am    1  UNL1       -0.2791
     43 H          59.7308   91.2054    0.3150 H       1  UNL1        0.1552
     44 C          60.0928   92.8645   -1.0312 C.ar    1  UNL1        0.0701
     45 C          59.0017   93.0447   -2.0446 C.ar    1  UNL1        0.0191
     46 C          59.2951   93.7225   -3.3502 C.ar    1  UNL1        0.0356
     47 C          60.6797   94.2200   -3.6424 C.ar    1  UNL1        0.1318
     48 N          61.7709   94.0397   -2.6290 N.ar    1  UNL1       -0.2279
     49 C          61.4774   93.3619   -1.3234 C.ar    1  UNL1        0.1149
     50 N          60.9732   94.8977   -4.9479 N.pl3   1  UNL1       -0.2932
     51 C          62.3865   95.2446   -5.3118 C.3     1  UNL1        0.0922
     52 C          62.6802   95.9223   -6.6173 C.3     1  UNL1        0.0215
     53 C          61.5605   96.2533   -7.5590 C.3     1  UNL1        0.0035
     54 C          60.1472   95.9064   -7.1952 C.3     1  UNL1        0.0215
     55 C          59.8536   95.2286   -5.8896 C.3     1  UNL1        0.0922
     56 C          64.7016   94.2306   10.6730 C.3     1  UNL1        0.1177
     57 C          65.9035   94.5324    9.8278 C.ar    1  UNL1       -0.0025
     58 C          66.9217   93.4633    9.5630 C.ar    1  UNL1       -0.0026
     59 C          68.1236   93.7651    8.7178 C.ar    1  UNL1       -0.0003
     60 C          68.3072   95.1359    8.1373 C.ar    1  UNL1       -0.0000
     61 C          67.2889   96.2051    8.4021 C.ar    1  UNL1       -0.0003
     62 C          66.0870   95.9033    9.2473 C.ar    1  UNL1       -0.0026
@<TRIPOS>BOND
     1    18    19    2
     2    19    17    1
     3    17     1    1
     4     1     2    1
     5     2     3    1
     6     3     4    2
     7     3     5   am
     8     5     6    1
     9     6    20    1
    10    20    21    1
    11    21    22   ar
    12    22    23   ar
    13    23    24   ar
    14    24    25    1
    15    24    26   ar
    16    26    27   ar
    17     6     7    1
    18     7     8    2
    19     7     9   am
    20     9    29    1
    21    29    30    1
    22    30    31   ar
    23    31    32   ar
    24    32    33   ar
    25    33    34   ar
    26    34    35   ar
    27    35    40    1
    28    40    41    2
    29    40    42   am
    30    42    44    1
    31    44    45   ar
    32    45    46   ar
    33    46    47   ar
    34    47    50    1
    35    50    51    1
    36    51    52    1
    37    52    53    1
    38    53    54    1
    39    54    55    1
    40    47    48   ar
    41    48    49   ar
    42    35    36   ar
    43    36    37   ar
    44    37    38    1
    45    37    39   ar
    46     9    10    1
    47    11    10    1
    48    11    12    1
    49    12    13   am
    50    13    14    2
    51    13    15   am
    52    15    56    1
    53    56    57    1
    54    57    58   ar
    55    58    59   ar
    56    59    60   ar
    57    60    61   ar
    58    61    62   ar
    59    12     1    1
    60    62    57   ar
    61    11     5    1
    62    27    21   ar
    63    39    30   ar
    64    39    34   ar
    65    49    44   ar
    66    55    50    1
    67    25    28    1
    68    42    43    1
    69    15    16    1
@<TRIPOS>MOLECULE
*****
 62 69 0 0 0
SMALL
GASTEIGER

@<TRIPOS>ATOM
      1 N          64.5602   83.2225   13.2399 N.3     1  UNL1       -0.1862
      2 C          65.1762   84.0985   14.2902 C.3     1  UNL1        0.1775
      3 C          64.7571   85.5338   14.4100 C.2     1  UNL1        0.2452
      4 O          65.3732   86.4099   15.4603 O.2     1  UNL1       -0.2732
      5 N          63.7220   86.0930   13.4796 N.am    1  UNL1       -0.2541
      6 C          63.3029   87.5283   13.5994 C.3     1  UNL1        0.1577
      7 C          62.2677   88.0875   12.6690 C.2     1  UNL1        0.2445
      8 O          61.8486   89.5228   12.7889 O.2     1  UNL1       -0.2731
      9 N          61.6516   87.2115   11.6187 N.am    1  UNL1       -0.2705
     10 C          62.0707   85.7762   11.4989 C.3     1  UNL1        0.1359
     11 C          63.1059   85.2170   12.4294 C.3     1  UNL1        0.1908
     12 N          63.5250   83.7817   12.3096 N.am    1  UNL1       -0.1863
     13 C          62.9089   82.9057   11.2593 C.2     1  UNL1        0.3191
     14 O          61.8738   83.4649   10.3289 O.2     1  UNL1       -0.2512
     15 N          63.3280   81.4704   11.1394 N.am    1  UNL1       -0.2836
     16 H          64.0074   81.1034   11.7501 H       1  UNL1        0.1513
     17 C          64.9793   81.7872   13.1201 C.3     1  UNL1        0.1188
     18 C          62.8009   80.8790   14.2062 C.2     1  UNL1       -0.0034
     19 C          64.2626   80.7286   13.9047 C.2     1  UNL1       -0.0071
     20 C          63.9189   88.4043   14.6497 C.3     1  UNL1        0.0556
     21 C          64.5430   89.7125   14.2635 C.ar    1  UNL1       -0.0198
     22 C          65.5201   90.3787   15.1863 C.ar    1  UNL1       -0.0011
     23 C          66.1443   91.6869   14.8001 C.ar    1  UNL1        0.0363
     24 C          65.7913   92.3289   13.4913 C.ar    1  UNL1        0.1337
     25 O          66.4154   93.6371   13.1052 O.3     1  UNL1       -0.5055
     26 C          64.8141   91.6628   12.5685 C.ar    1  UNL1        0.0363
     27 C          64.1900   90.3546   12.9546 C.ar    1  UNL1       -0.0011
     28 H          67.0258   94.0532   13.6816 H       1  UNL1        0.2922
     29 C          60.6165   87.7707   10.6884 C.3     1  UNL1        0.1217
     30 C          60.9696   88.8980    9.7639 C.ar    1  UNL1        0.0135
     31 C          62.0082   89.9020   10.1679 C.ar    1  UNL1       -0.0012
     32 C          62.3613   91.0293    9.2435 C.ar    1  UNL1       -0.0002
     33 C          61.6758   91.1525    7.9151 C.ar    1  UNL1        0.0016
     34 C          60.6372   90.1485    7.5110 C.ar    1  UNL1        0.0214
     35 C          59.7997   90.0132    6.2740 C.ar    1  UNL1        0.0722
     36 C          58.9289   88.8024    6.4339 C.ar    1  UNL1        0.0805
     37 N          59.2283   88.1893    7.7697 N.ar    1  UNL1       -0.3241
     38 C          58.5849   86.9601    8.3398 C.3     1  UNL1        0.1305
     39 C          60.2841   89.0213    8.4354 C.ar    1  UNL1        0.0577
     40 C          59.8279   90.9282    5.0856 C.2     1  UNL1        0.2510
     41 O          58.5476   91.4847    4.5370 O.2     1  UNL1       -0.2698
     42 N          61.1365   91.2867    4.4460 N.am    1  UNL1       -0.2791
     43 H          61.9768   90.9214    4.8062 H       1  UNL1        0.1552
     44 C          61.1648   92.2016    3.2578 C.ar    1  UNL1        0.0701
     45 C          60.0358   93.1608    3.0227 C.ar    1  UNL1        0.0191
     46 C          60.0640   94.0758    1.8345 C.ar    1  UNL1        0.0356
     47 C          61.2213   94.0316    0.8812 C.ar    1  UNL1        0.1318
     48 N          62.3504   93.0724    1.1163 N.ar    1  UNL1       -0.2279
     49 C          62.3221   92.1574    2.3045 C.ar    1  UNL1        0.1149
     50 N          61.2496   94.9465   -0.3070 N.pl3   1  UNL1       -0.2932
     51 C          60.0195   95.7135   -0.6926 C.3     1  UNL1        0.0922
     52 C          60.0478   96.6285   -1.8808 C.3     1  UNL1        0.0215
     53 C          61.3061   96.7765   -2.6837 C.3     1  UNL1        0.0035
     54 C          62.5363   96.0096   -2.2982 C.3     1  UNL1        0.0215
     55 C          62.5080   95.0946   -1.1099 C.3     1  UNL1        0.0922
     56 C          62.7120   80.5944   10.0892 C.3     1  UNL1        0.1177
     57 C          63.0780   79.1416   10.0151 C.ar    1  UNL1       -0.0025
     58 C          62.5070   78.1728   11.0078 C.ar    1  UNL1       -0.0026
     59 C          62.8730   76.7200   10.9337 C.ar    1  UNL1       -0.0003
     60 C          63.8099   76.2361    9.8670 C.ar    1  UNL1       -0.0000
     61 C          64.3810   77.2049    8.8743 C.ar    1  UNL1       -0.0003
     62 C          64.0150   78.6577    8.9484 C.ar    1  UNL1       -0.0026
@<TRIPOS>BOND
     1    18    19    2
     2    19    17    1
     3    17     1    1
     4     1     2    1
     5     2     3    1
     6     3     4    2
     7     3     5   am
     8     5     6    1
     9     6    20    1
    10    20    21    1
    11    21    22   ar
    12    22    23   ar
    13    23    24   ar
    14    24    25    1
    15    24    26   ar
    16    26    27   ar
    17     6     7    1
    18     7     8    2
    19     7     9   am
    20     9    29    1
    21    29    30    1
    22    30    31   ar
    23    31    32   ar
    24    32    33   ar
    25    33    34   ar
    26    34    35   ar
    27    35    40    1
    28    40    41    2
    29    40    42   am
    30    42    44    1
    31    44    45   ar
    32    45    46   ar
    33    46    47   ar
    34    47    50    1
    35    50    51    1
    36    51    52    1
    37    52    53    1
    38    53    54    1
    39    54    55    1
    40    47    48   ar
    41    48    49   ar
    42    35    36   ar
    43    36    37   ar
    44    37    38    1
    45    37    39   ar
    46     9    10    1
    47    11    10    1
    48    11    12    1
    49    12    13   am
    50    13    14    2
    51    13    15   am
    52    15    56    1
    53    56    57    1
    54    57    58   ar
    55    58    59   ar
    56    59    60   ar
    57    60    61   ar
    58    61    62   ar
    59    12     1    1
    60    62    57   ar
    61    11     5    1
    62    27    21   ar
    63    39    30   ar
    64    39    34   ar
    65    49    44   ar
    66    55    50    1
    67    25    28    1
    68    42    43    1
    69    15    16    1
