@<TRIPOS>MOLECULE
*****
 29 32 0 0 0
SMALL
GASTEIGER

@<TRIPOS>ATOM
      1 C          59.9156   88.5511    7.9135 C.ar    1  UNL1       -0.0024
      2 C          59.8238   87.0696    7.6977 C.ar    1  UNL1       -0.0013
      3 C          60.5334   86.1307    8.6278 C.ar    1  UNL1        0.0185
      4 C          61.3347   86.6735    9.7738 C.ar    1  UNL1        0.1103
      5 C          61.4265   88.1551    9.9896 C.ar    1  UNL1        0.0185
      6 C          60.7169   89.0938    9.0595 C.ar    1  UNL1       -0.0013
      7 S          62.0443   85.7347   10.7040 S.O2    1  UNL1        0.0274
      8 O          62.7730   85.1320    9.5397 O.2     1  UNL1       -0.1642
      9 O          61.3156   86.3375   11.8682 O.2     1  UNL1       -0.1642
     10 C          62.7539   84.7960   11.6341 C.ar    1  UNL1        0.1103
     11 C          63.1372   85.2515   13.0109 C.ar    1  UNL1        0.0187
     12 C          63.8468   84.3128   13.9411 C.ar    1  UNL1        0.0013
     13 C          64.1731   82.9185   13.4945 C.ar    1  UNL1        0.0001
     14 C          63.7898   82.4629   12.1177 C.ar    1  UNL1        0.0013
     15 C          63.0802   83.4017   11.1875 C.ar    1  UNL1        0.0187
     16 C          59.2060   89.4899    6.9834 C.3     1  UNL1        0.1177
     17 O          57.8127   91.4707    5.2128 O.2     1  UNL1       -0.2526
     18 C          59.2793   91.2096    5.0372 C.2     1  UNL1        0.3047
     19 N          59.9759   90.2192    5.9225 N.am    1  UNL1       -0.2847
     20 N          60.0493   91.9388    3.9764 N.am    1  UNL1       -0.2560
     21 C          59.4915   92.9520    3.0213 C.3     1  UNL1        0.1218
     22 C          60.6097   93.4223    2.1390 C.ar    1  UNL1       -0.0016
     23 C          60.6520   94.4151    1.0155 C.ar    1  UNL1        0.0178
     24 C          61.9433   94.6853    0.3017 C.ar    1  UNL1        0.0986
     25 N          63.1923   93.9627    0.7115 N.ar    1  UNL1       -0.2426
     26 C          63.1500   92.9699    1.8351 C.ar    1  UNL1        0.0960
     27 C          61.8587   92.6997    2.5488 C.ar    1  UNL1        0.0146
     28 C          61.5123   91.7828    3.6844 C.3     1  UNL1        0.1233
     29 H          60.9385   90.0477    5.8073 H       1  UNL1        0.1513
@<TRIPOS>BOND
     1    17    18    2
     2    18    19   am
     3    19    16    1
     4    16     1    1
     5     1     2   ar
     6     2     3   ar
     7     3     4   ar
     8     4     7    1
     9     7     8    2
    10     7     9    2
    11     7    10    1
    12    10    11   ar
    13    11    12   ar
    14    12    13   ar
    15    13    14   ar
    16    14    15   ar
    17     4     5   ar
    18     5     6   ar
    19    18    20   am
    20    20    21    1
    21    21    22    1
    22    22    23   ar
    23    23    24   ar
    24    24    25   ar
    25    25    26   ar
    26    26    27   ar
    27    27    28    1
    28     6     1   ar
    29    28    20    1
    30    15    10   ar
    31    27    22   ar
    32    19    29    1
@<TRIPOS>MOLECULE
*****
 29 32 0 0 0
SMALL
GASTEIGER

@<TRIPOS>ATOM
      1 C          64.2500   88.6570   14.0291 C.ar    1  UNL1       -0.0024
      2 C          64.6806   87.6145   15.0179 C.ar    1  UNL1       -0.0013
      3 C          64.3666   86.1690   14.7685 C.ar    1  UNL1        0.0185
      4 C          63.6219   85.7662   13.5303 C.ar    1  UNL1        0.1103
      5 C          63.1914   86.8088   12.5414 C.ar    1  UNL1        0.0185
      6 C          63.5054   88.2541   12.7909 C.ar    1  UNL1       -0.0013
      7 S          63.3079   84.3208   13.2808 S.O2    1  UNL1        0.0274
      8 O          62.4745   84.7066   12.0948 O.2     1  UNL1       -0.1642
      9 O          64.1413   83.9351   14.4668 O.2     1  UNL1       -0.1642
     10 C          62.9939   82.8755   13.0314 C.ar    1  UNL1        0.1103
     11 C          62.4183   82.0324   14.1305 C.ar    1  UNL1        0.0187
     12 C          62.1043   80.5871   13.8811 C.ar    1  UNL1        0.0013
     13 C          62.3657   79.9847   12.5325 C.ar    1  UNL1        0.0001
     14 C          62.9413   80.8276   11.4333 C.ar    1  UNL1        0.0013
     15 C          63.2553   82.2731   11.6828 C.ar    1  UNL1        0.0187
     16 C          64.5641   90.1024   14.2786 C.3     1  UNL1        0.1177
     17 O          65.4250   92.9260   14.8135 O.2     1  UNL1       -0.2526
     18 C          65.4253   92.3948   13.4107 C.2     1  UNL1        0.3047
     19 N          64.9948   90.9831   13.1432 N.am    1  UNL1       -0.2847
     20 N          65.8560   93.2754   12.2754 N.am    1  UNL1       -0.2560
     21 C          66.3102   94.7006   12.3882 C.3     1  UNL1        0.1218
     22 C          66.6431   95.1915   11.0104 C.ar    1  UNL1       -0.0016
     23 C          67.1403   96.5150   10.5094 C.ar    1  UNL1        0.0178
     24 C          67.3892   96.7167    9.0441 C.ar    1  UNL1        0.0986
     25 N          67.1408   95.5950    8.0797 N.ar    1  UNL1       -0.2426
     26 C          66.6436   94.2715    8.5807 C.ar    1  UNL1        0.0960
     27 C          66.3948   94.0697   10.0461 C.ar    1  UNL1        0.0146
     28 C          65.9083   92.8856   10.8279 C.3     1  UNL1        0.1233
     29 H          64.9950   90.6344   12.2225 H       1  UNL1        0.1513
@<TRIPOS>BOND
     1    17    18    2
     2    18    19   am
     3    19    16    1
     4    16     1    1
     5     1     2   ar
     6     2     3   ar
     7     3     4   ar
     8     4     7    1
     9     7     8    2
    10     7     9    2
    11     7    10    1
    12    10    11   ar
    13    11    12   ar
    14    12    13   ar
    15    13    14   ar
    16    14    15   ar
    17     4     5   ar
    18     5     6   ar
    19    18    20   am
    20    20    21    1
    21    21    22    1
    22    22    23   ar
    23    23    24   ar
    24    24    25   ar
    25    25    26   ar
    26    26    27   ar
    27    27    28    1
    28     6     1   ar
    29    28    20    1
    30    15    10   ar
    31    27    22   ar
    32    19    29    1
@<TRIPOS>MOLECULE
*****
 29 32 0 0 0
SMALL
GASTEIGER

@<TRIPOS>ATOM
      1 C          64.2253   88.6253   14.0291 C.ar    1  UNL1       -0.0024
      2 C          64.6553   87.5807   15.0160 C.ar    1  UNL1       -0.0013
      3 C          64.3562   86.1341   14.7550 C.ar    1  UNL1        0.0185
      4 C          63.6272   85.7322   13.5072 C.ar    1  UNL1        0.1103
      5 C          63.1973   86.7769   12.5203 C.ar    1  UNL1        0.0185
      6 C          63.4963   88.2234   12.7813 C.ar    1  UNL1       -0.0013
      7 S          63.3281   84.2857   13.2462 S.O2    1  UNL1        0.0274
      8 O          64.0553   83.9086   14.5028 O.2     1  UNL1       -0.1642
      9 O          62.6010   84.6628   11.9896 O.2     1  UNL1       -0.1642
     10 C          63.0291   82.8392   12.9852 C.ar    1  UNL1        0.1103
     11 C          63.2096   82.2726   11.6081 C.ar    1  UNL1        0.0187
     12 C          62.9106   80.8261   11.3471 C.ar    1  UNL1        0.0013
     13 C          62.4309   79.9461   12.4631 C.ar    1  UNL1        0.0001
     14 C          62.2504   80.5127   13.8402 C.ar    1  UNL1        0.0013
     15 C          62.5494   81.9593   14.1013 C.ar    1  UNL1        0.0187
     16 C          64.5244   90.0719   14.2901 C.3     1  UNL1        0.1177
     17 O          65.4127   92.8808   14.8564 O.2     1  UNL1       -0.2526
     18 C          65.3996   92.3681   13.4468 C.2     1  UNL1        0.3047
     19 N          64.9555   90.9637   13.1637 N.am    1  UNL1       -0.2847
     20 N          65.8307   93.2599   12.3203 N.am    1  UNL1       -0.2560
     21 C          66.2976   94.6795   12.4489 C.3     1  UNL1        0.1218
     22 C          66.6260   95.1857   11.0755 C.ar    1  UNL1       -0.0016
     23 C          67.1313   96.5114   10.5887 C.ar    1  UNL1        0.0178
     24 C          67.3727   96.7302    9.1245 C.ar    1  UNL1        0.0986
     25 N          67.1087   95.6234    8.1472 N.ar    1  UNL1       -0.2426
     26 C          66.6034   94.2976    8.6341 C.ar    1  UNL1        0.0960
     27 C          66.3621   94.0788   10.0982 C.ar    1  UNL1        0.0146
     28 C          65.8705   92.8886   10.8676 C.3     1  UNL1        0.1233
     29 H          64.9469   90.6272   12.2385 H       1  UNL1        0.1513
@<TRIPOS>BOND
     1    17    18    2
     2    18    19   am
     3    19    16    1
     4    16     1    1
     5     1     2   ar
     6     2     3   ar
     7     3     4   ar
     8     4     7    1
     9     7     8    2
    10     7     9    2
    11     7    10    1
    12    10    11   ar
    13    11    12   ar
    14    12    13   ar
    15    13    14   ar
    16    14    15   ar
    17     4     5   ar
    18     5     6   ar
    19    18    20   am
    20    20    21    1
    21    21    22    1
    22    22    23   ar
    23    23    24   ar
    24    24    25   ar
    25    25    26   ar
    26    26    27   ar
    27    27    28    1
    28     6     1   ar
    29    28    20    1
    30    15    10   ar
    31    27    22   ar
    32    19    29    1
@<TRIPOS>MOLECULE
*****
 29 32 0 0 0
SMALL
GASTEIGER

@<TRIPOS>ATOM
      1 C          64.4529   90.3032   14.4909 C.ar    1  UNL1       -0.0024
      2 C          63.5676   90.7970   13.3853 C.ar    1  UNL1       -0.0013
      3 C          64.0817   91.8146   12.4105 C.ar    1  UNL1        0.0185
      4 C          65.4811   92.3385   12.5413 C.ar    1  UNL1        0.1103
      5 C          66.3665   91.8447   13.6470 C.ar    1  UNL1        0.0185
      6 C          65.8524   90.8271   14.6217 C.ar    1  UNL1       -0.0013
      7 S          65.9953   93.3560   11.5666 S.O2    1  UNL1        0.0274
      8 O          65.1176   92.7756   10.4977 O.2     1  UNL1       -0.1642
      9 O          66.8730   93.9365   12.6355 O.2     1  UNL1       -0.1642
     10 C          66.5094   94.3736   10.5919 C.ar    1  UNL1        0.1103
     11 C          66.3620   95.8369   10.8875 C.ar    1  UNL1        0.0187
     12 C          66.8761   96.8545    9.9128 C.ar    1  UNL1        0.0013
     13 C          67.5376   96.4089    8.6424 C.ar    1  UNL1        0.0001
     14 C          67.6850   94.9458    8.3467 C.ar    1  UNL1        0.0013
     15 C          67.1709   93.9281    9.3215 C.ar    1  UNL1        0.0187
     16 C          63.9388   89.2856   15.4657 C.3     1  UNL1        0.1177
     17 O          63.0231   88.4273   12.7409 O.2     1  UNL1       -0.2526
     18 C          63.4773   87.4019   13.7369 C.2     1  UNL1        0.3047
     19 N          63.9352   87.8310   15.0993 N.am    1  UNL1       -0.2847
     20 N          63.4737   85.9473   13.3706 N.am    1  UNL1       -0.2560
     21 C          63.0455   85.3708   12.0536 C.3     1  UNL1        0.1218
     22 C          63.2048   83.8810   12.1260 C.ar    1  UNL1       -0.0016
     23 C          62.9383   82.7935   11.1279 C.ar    1  UNL1        0.0178
     24 C          63.1985   81.3617   11.4915 C.ar    1  UNL1        0.0986
     25 N          63.7250   81.0174   12.8532 N.ar    1  UNL1       -0.2426
     26 C          63.9915   82.1050   13.8513 C.ar    1  UNL1        0.0960
     27 C          63.7314   83.5368   13.4877 C.ar    1  UNL1        0.0146
     28 C          63.8975   84.8138   14.2568 C.3     1  UNL1        0.1233
     29 H          64.2333   87.1580   15.7531 H       1  UNL1        0.1513
@<TRIPOS>BOND
     1    17    18    2
     2    18    19   am
     3    19    16    1
     4    16     1    1
     5     1     2   ar
     6     2     3   ar
     7     3     4   ar
     8     4     7    1
     9     7     8    2
    10     7     9    2
    11     7    10    1
    12    10    11   ar
    13    11    12   ar
    14    12    13   ar
    15    13    14   ar
    16    14    15   ar
    17     4     5   ar
    18     5     6   ar
    19    18    20   am
    20    20    21    1
    21    21    22    1
    22    22    23   ar
    23    23    24   ar
    24    24    25   ar
    25    25    26   ar
    26    26    27   ar
    27    27    28    1
    28     6     1   ar
    29    28    20    1
    30    15    10   ar
    31    27    22   ar
    32    19    29    1
@<TRIPOS>MOLECULE
*****
 29 32 0 0 0
SMALL
GASTEIGER

@<TRIPOS>ATOM
      1 C          59.9763   88.4792    8.5836 C.ar    1  UNL1       -0.0024
      2 C          61.4122   88.1354    8.3191 C.ar    1  UNL1       -0.0013
      3 C          62.1960   87.3561    9.3333 C.ar    1  UNL1        0.0185
      4 C          61.5438   86.9207   10.6120 C.ar    1  UNL1        0.1103
      5 C          60.1078   87.2645   10.8765 C.ar    1  UNL1        0.0185
      6 C          59.3241   88.0437    9.8623 C.ar    1  UNL1       -0.0013
      7 S          62.3275   86.1415   11.6262 S.O2    1  UNL1        0.0274
      8 O          62.7932   87.4231   12.2510 O.2     1  UNL1       -0.1642
      9 O          61.8617   84.8599   11.0014 O.2     1  UNL1       -0.1642
     10 C          63.1111   85.3623   12.6404 C.ar    1  UNL1        0.1103
     11 C          63.2007   83.8688   12.5330 C.ar    1  UNL1        0.0187
     12 C          63.9844   83.0895   13.5471 C.ar    1  UNL1        0.0013
     13 C          64.6786   83.8038   14.6688 C.ar    1  UNL1        0.0001
     14 C          64.5890   85.2972   14.7762 C.ar    1  UNL1        0.0013
     15 C          63.8053   86.0765   13.7620 C.ar    1  UNL1        0.0187
     16 C          59.1926   89.2584    7.5694 C.3     1  UNL1        0.1177
     17 O          57.6555   91.0329    5.7017 O.2     1  UNL1       -0.2526
     18 C          59.1364   90.8677    5.5306 C.2     1  UNL1        0.3047
     19 N          59.9050   89.9805    6.4644 N.am    1  UNL1       -0.2847
     20 N          59.8489   91.5898    4.4256 N.am    1  UNL1       -0.2560
     21 C          59.2169   92.5058    3.4198 C.3     1  UNL1        0.1218
     22 C          60.2958   93.0048    2.5050 C.ar    1  UNL1       -0.0016
     23 C          60.2634   93.9340    1.3278 C.ar    1  UNL1        0.0178
     24 C          61.5298   94.2555    0.5911 C.ar    1  UNL1        0.0986
     25 N          62.8286   93.6479    1.0315 N.ar    1  UNL1       -0.2426
     26 C          62.8610   92.7188    2.2086 C.ar    1  UNL1        0.0960
     27 C          61.5947   92.3973    2.9453 C.ar    1  UNL1        0.0146
     28 C          61.3184   91.5227    4.1323 C.3     1  UNL1        0.1233
     29 H          60.8771   89.8721    6.3521 H       1  UNL1        0.1513
@<TRIPOS>BOND
     1    17    18    2
     2    18    19   am
     3    19    16    1
     4    16     1    1
     5     1     2   ar
     6     2     3   ar
     7     3     4   ar
     8     4     7    1
     9     7     8    2
    10     7     9    2
    11     7    10    1
    12    10    11   ar
    13    11    12   ar
    14    12    13   ar
    15    13    14   ar
    16    14    15   ar
    17     4     5   ar
    18     5     6   ar
    19    18    20   am
    20    20    21    1
    21    21    22    1
    22    22    23   ar
    23    23    24   ar
    24    24    25   ar
    25    25    26   ar
    26    26    27   ar
    27    27    28    1
    28     6     1   ar
    29    28    20    1
    30    15    10   ar
    31    27    22   ar
    32    19    29    1
