@<TRIPOS>MOLECULE
*****
 25 28 0 0 0
SMALL
GASTEIGER

@<TRIPOS>ATOM
      1 C          62.8084   86.6878   11.8837 C.3     1  UNL1        0.1270
      2 C          62.9827   85.2851   12.3860 C.ar    1  UNL1        0.0249
      3 C          62.4831   84.1292   11.5711 C.ar    1  UNL1       -0.0005
      4 C          62.6574   82.7266   12.0734 C.ar    1  UNL1       -0.0001
      5 C          63.3313   82.4800   13.3907 C.ar    1  UNL1        0.0031
      6 C          63.8308   83.6359   14.2056 C.ar    1  UNL1        0.0372
      7 C          63.6565   85.0385   13.7033 C.ar    1  UNL1        0.1420
      8 O          64.1561   86.1946   14.5182 O.3     1  UNL1       -0.4541
      9 C          63.9818   87.5971   14.0159 C.ar    1  UNL1        0.1420
     10 C          64.4813   88.7532   14.8308 C.ar    1  UNL1        0.0372
     11 C          64.3070   90.1558   14.3285 C.ar    1  UNL1        0.0031
     12 C          63.6332   90.4024   13.0113 C.ar    1  UNL1       -0.0001
     13 C          63.1337   89.2464   12.1963 C.ar    1  UNL1       -0.0005
     14 C          63.3079   87.8438   12.6987 C.ar    1  UNL1        0.0249
     15 N          60.8200   87.6552   10.5198 N.am    1  UNL1       -0.2636
     16 C          62.1346   86.9344   10.5665 C.2     1  UNL1        0.2355
     17 O          62.7754   86.4601    9.2958 O.2     1  UNL1       -0.2740
     18 H          60.3994   87.9665   11.3538 H       1  UNL1        0.1568
     19 C          59.3429   88.9938    7.1894 C.ar    1  UNL1        0.1576
     20 C          58.8755   87.5688    7.1617 C.ar    1  UNL1        0.0677
     21 S          59.3720   86.8939    8.4059 S.2     1  UNL1       -0.0501
     22 C          60.1461   87.9018    9.2026 C.ar    1  UNL1        0.1663
     23 N          60.1282   89.1996    8.4507 N.ar    1  UNL1       -0.2135
     24 N          58.8021   91.0681    5.0906 N.1     1  UNL1       -0.1892
     25 C          59.0725   90.0310    6.1400 C.1     1  UNL1        0.1204
@<TRIPOS>BOND
     1    24    25    3
     2    25    19    1
     3    19    20   ar
     4    20    21   ar
     5    21    22   ar
     6    22    15    1
     7    15    16   am
     8    16    17    2
     9    16     1    1
    10     1     2    1
    11     2     3   ar
    12     3     4   ar
    13     4     5   ar
    14     5     6   ar
    15     6     7   ar
    16     7     8    1
    17     8     9    1
    18     9    10   ar
    19    10    11   ar
    20    11    12   ar
    21    12    13   ar
    22    13    14   ar
    23    22    23   ar
    24    23    19   ar
    25    14     1    1
    26     7     2   ar
    27    14     9   ar
    28    15    18    1
@<TRIPOS>MOLECULE
*****
 25 28 0 0 0
SMALL
GASTEIGER

@<TRIPOS>ATOM
      1 C          62.8009   86.6753   11.8848 C.3     1  UNL1        0.1270
      2 C          63.2947   87.8290   12.7067 C.ar    1  UNL1        0.0249
      3 C          63.1163   89.2335   12.2113 C.ar    1  UNL1       -0.0005
      4 C          63.6100   90.3870   13.0331 C.ar    1  UNL1       -0.0001
      5 C          64.2822   90.1361   14.3504 C.ar    1  UNL1        0.0031
      6 C          64.4606   88.7316   14.8458 C.ar    1  UNL1        0.0372
      7 C          63.9668   87.5780   14.0240 C.ar    1  UNL1        0.1420
      8 O          64.1452   86.1734   14.5194 O.3     1  UNL1       -0.4541
      9 C          63.6515   85.0199   13.6976 C.ar    1  UNL1        0.1420
     10 C          63.8299   83.6153   14.1930 C.ar    1  UNL1        0.0372
     11 C          63.3361   82.4617   13.3711 C.ar    1  UNL1        0.0031
     12 C          62.6640   82.7127   12.0539 C.ar    1  UNL1       -0.0001
     13 C          62.4855   84.1172   11.5584 C.ar    1  UNL1       -0.0005
     14 C          62.9793   85.2708   12.3803 C.ar    1  UNL1        0.0249
     15 N          60.8134   87.6458   10.5218 N.am    1  UNL1       -0.2636
     16 C          62.1287   86.9263   10.5676 C.2     1  UNL1        0.2355
     17 O          62.7719   86.4576    9.2960 O.2     1  UNL1       -0.2740
     18 H          60.3913   87.9534   11.3563 H       1  UNL1        0.1568
     19 C          59.3380   88.9962    7.1953 C.ar    1  UNL1        0.1576
     20 C          58.8757   87.5697    7.1595 C.ar    1  UNL1        0.0677
     21 S          59.3722   86.8902    8.4012 S.2     1  UNL1       -0.0501
     22 C          60.1413   87.8968    9.2045 C.ar    1  UNL1        0.1663
     23 N          60.1202   89.1984    8.4592 N.ar    1  UNL1       -0.2135
     24 N          58.7940   91.0793    5.1061 N.1     1  UNL1       -0.1892
     25 C          59.0660   90.0378    6.1507 C.1     1  UNL1        0.1204
@<TRIPOS>BOND
     1    24    25    3
     2    25    19    1
     3    19    20   ar
     4    20    21   ar
     5    21    22   ar
     6    22    15    1
     7    15    16   am
     8    16    17    2
     9    16     1    1
    10     1     2    1
    11     2     3   ar
    12     3     4   ar
    13     4     5   ar
    14     5     6   ar
    15     6     7   ar
    16     7     8    1
    17     8     9    1
    18     9    10   ar
    19    10    11   ar
    20    11    12   ar
    21    12    13   ar
    22    13    14   ar
    23    22    23   ar
    24    23    19   ar
    25    14     1    1
    26     7     2   ar
    27    14     9   ar
    28    15    18    1
@<TRIPOS>MOLECULE
*****
 25 28 0 0 0
SMALL
GASTEIGER

@<TRIPOS>ATOM
      1 C          62.0602   87.3681   10.8295 C.3     1  UNL1        0.1270
      2 C          62.6019   88.5956   11.5003 C.ar    1  UNL1        0.0249
      3 C          63.5421   88.4627   12.6614 C.ar    1  UNL1       -0.0005
      4 C          64.0838   89.6902   13.3321 C.ar    1  UNL1       -0.0001
      5 C          63.6852   91.0505   12.8416 C.ar    1  UNL1        0.0031
      6 C          62.7450   91.1834   11.6805 C.ar    1  UNL1        0.0372
      7 C          62.2033   89.9560   11.0098 C.ar    1  UNL1        0.1420
      8 O          61.2631   90.0888    9.8486 O.3     1  UNL1       -0.4541
      9 C          60.7214   88.8614    9.1780 C.ar    1  UNL1        0.1420
     10 C          59.7811   88.9942    8.0168 C.ar    1  UNL1        0.0372
     11 C          59.2394   87.7668    7.3461 C.ar    1  UNL1        0.0031
     12 C          59.6380   86.4064    7.8365 C.ar    1  UNL1       -0.0001
     13 C          60.5782   86.2735    8.9976 C.ar    1  UNL1       -0.0005
     14 C          61.1199   87.5010    9.6684 C.ar    1  UNL1        0.0249
     15 N          62.3437   85.6725   12.7774 N.am    1  UNL1       -0.2636
     16 C          62.4587   86.0077   11.3200 C.2     1  UNL1        0.2355
     17 O          62.9724   84.9825   10.3528 O.2     1  UNL1       -0.2740
     18 H          62.0066   86.3453   13.4122 H       1  UNL1        0.1568
     19 C          62.8944   81.9032   13.5223 C.ar    1  UNL1        0.1576
     20 C          63.8167   82.5341   14.5229 C.ar    1  UNL1        0.0677
     21 S          63.7227   84.0229   14.3656 S.2     1  UNL1       -0.0501
     22 C          62.7422   84.3121   13.2679 C.ar    1  UNL1        0.1663
     23 N          62.2303   83.0020   12.7467 N.ar    1  UNL1       -0.2135
     24 N          62.4550   78.9603   13.1395 N.1     1  UNL1       -0.1892
     25 C          62.6747   80.4318   13.3309 C.1     1  UNL1        0.1204
@<TRIPOS>BOND
     1    24    25    3
     2    25    19    1
     3    19    20   ar
     4    20    21   ar
     5    21    22   ar
     6    22    15    1
     7    15    16   am
     8    16    17    2
     9    16     1    1
    10     1     2    1
    11     2     3   ar
    12     3     4   ar
    13     4     5   ar
    14     5     6   ar
    15     6     7   ar
    16     7     8    1
    17     8     9    1
    18     9    10   ar
    19    10    11   ar
    20    11    12   ar
    21    12    13   ar
    22    13    14   ar
    23    22    23   ar
    24    23    19   ar
    25    14     1    1
    26     7     2   ar
    27    14     9   ar
    28    15    18    1
@<TRIPOS>MOLECULE
*****
 25 28 0 0 0
SMALL
GASTEIGER

@<TRIPOS>ATOM
      1 C          62.0673   87.3778   10.8309 C.3     1  UNL1        0.1270
      2 C          61.1284   87.5097    9.6685 C.ar    1  UNL1        0.0249
      3 C          60.5870   86.2817    8.9986 C.ar    1  UNL1       -0.0005
      4 C          59.6481   86.4137    7.8363 C.ar    1  UNL1       -0.0001
      5 C          59.2505   87.7737    7.3440 C.ar    1  UNL1        0.0031
      6 C          59.7919   89.0017    8.0139 C.ar    1  UNL1        0.0372
      7 C          60.7308   88.8697    9.1762 C.ar    1  UNL1        0.1420
      8 O          61.2723   90.0978    9.8462 O.3     1  UNL1       -0.4541
      9 C          62.2112   89.9658   11.0085 C.ar    1  UNL1        0.1420
     10 C          62.7526   91.1938   11.6785 C.ar    1  UNL1        0.0372
     11 C          63.6916   91.0618   12.8408 C.ar    1  UNL1        0.0031
     12 C          64.0891   89.7018   13.3332 C.ar    1  UNL1       -0.0001
     13 C          63.5477   88.4738   12.6632 C.ar    1  UNL1       -0.0005
     14 C          62.6087   88.6058   11.5008 C.ar    1  UNL1        0.0249
     15 N          62.3931   85.6996   12.7873 N.am    1  UNL1       -0.2636
     16 C          62.4649   86.0178   11.3232 C.2     1  UNL1        0.2355
     17 O          62.9343   84.9760   10.3514 O.2     1  UNL1       -0.2740
     18 H          62.0850   86.3833   13.4251 H       1  UNL1        0.1568
     19 C          62.9242   81.9316   13.5529 C.ar    1  UNL1        0.1576
     20 C          63.8806   82.5618   14.5215 C.ar    1  UNL1        0.0677
     21 S          63.7980   84.0500   14.3526 S.2     1  UNL1       -0.0501
     22 C          62.7906   84.3396   13.2796 C.ar    1  UNL1        0.1663
     23 N          62.2506   83.0303   12.7854 N.ar    1  UNL1       -0.2135
     24 N          62.4431   78.9903   13.2108 N.1     1  UNL1       -0.1892
     25 C          62.6837   80.4610   13.3818 C.1     1  UNL1        0.1204
@<TRIPOS>BOND
     1    24    25    3
     2    25    19    1
     3    19    20   ar
     4    20    21   ar
     5    21    22   ar
     6    22    15    1
     7    15    16   am
     8    16    17    2
     9    16     1    1
    10     1     2    1
    11     2     3   ar
    12     3     4   ar
    13     4     5   ar
    14     5     6   ar
    15     6     7   ar
    16     7     8    1
    17     8     9    1
    18     9    10   ar
    19    10    11   ar
    20    11    12   ar
    21    12    13   ar
    22    13    14   ar
    23    22    23   ar
    24    23    19   ar
    25    14     1    1
    26     7     2   ar
    27    14     9   ar
    28    15    18    1
@<TRIPOS>MOLECULE
*****
 25 28 0 0 0
SMALL
GASTEIGER

@<TRIPOS>ATOM
      1 C          62.6055   87.5626   11.7297 C.3     1  UNL1        0.1270
      2 C          61.6877   87.7639   10.5604 C.ar    1  UNL1        0.0249
      3 C          61.3313   89.1518   10.1169 C.ar    1  UNL1       -0.0005
      4 C          60.4135   89.3530    8.9477 C.ar    1  UNL1       -0.0001
      5 C          59.8521   88.1664    8.2220 C.ar    1  UNL1        0.0031
      6 C          60.2085   86.7785    8.6654 C.ar    1  UNL1        0.0372
      7 C          61.1263   86.5773    9.8347 C.ar    1  UNL1        0.1420
      8 O          61.4827   85.1893   10.2782 O.3     1  UNL1       -0.4541
      9 C          62.4005   84.9881   11.4474 C.ar    1  UNL1        0.1420
     10 C          62.7570   83.6002   11.8909 C.ar    1  UNL1        0.0372
     11 C          63.6748   83.3989   13.0602 C.ar    1  UNL1        0.0031
     12 C          64.2362   84.5856   13.7859 C.ar    1  UNL1       -0.0001
     13 C          63.8798   85.9735   13.3424 C.ar    1  UNL1       -0.0005
     14 C          62.9619   86.1748   12.1731 C.ar    1  UNL1        0.0249
     15 N          63.5171   88.6421   13.9100 N.am    1  UNL1       -0.2636
     16 C          63.1669   88.7493   12.4554 C.2     1  UNL1        0.2355
     17 O          63.3781   90.0432   11.7265 O.2     1  UNL1       -0.2740
     18 H          63.3785   87.7928   14.3884 H       1  UNL1        0.1568
     19 C          65.5002   91.6966   15.2528 C.ar    1  UNL1        0.1576
     20 C          64.3847   91.6131   16.2522 C.ar    1  UNL1        0.0677
     21 S          63.5061   90.4587   15.8708 S.2     1  UNL1       -0.0501
     22 C          64.0785   89.8287   14.6357 C.ar    1  UNL1        0.1663
     23 N          65.3109   90.5938   14.2538 N.ar    1  UNL1       -0.2135
     24 N          67.7199   93.7147   15.2522 N.1     1  UNL1       -0.1892
     25 C          66.6100   92.7056   15.2525 C.1     1  UNL1        0.1204
@<TRIPOS>BOND
     1    24    25    3
     2    25    19    1
     3    19    20   ar
     4    20    21   ar
     5    21    22   ar
     6    22    15    1
     7    15    16   am
     8    16    17    2
     9    16     1    1
    10     1     2    1
    11     2     3   ar
    12     3     4   ar
    13     4     5   ar
    14     5     6   ar
    15     6     7   ar
    16     7     8    1
    17     8     9    1
    18     9    10   ar
    19    10    11   ar
    20    11    12   ar
    21    12    13   ar
    22    13    14   ar
    23    22    23   ar
    24    23    19   ar
    25    14     1    1
    26     7     2   ar
    27    14     9   ar
    28    15    18    1
@<TRIPOS>MOLECULE
*****
 25 28 0 0 0
SMALL
GASTEIGER

@<TRIPOS>ATOM
      1 C          62.6444   87.5668   11.7849 C.3     1  UNL1        0.1270
      2 C          62.9825   86.1791   12.2431 C.ar    1  UNL1        0.0249
      3 C          63.8830   85.9783   13.4257 C.ar    1  UNL1       -0.0005
      4 C          64.2210   84.5906   13.8839 C.ar    1  UNL1       -0.0001
      5 C          63.6585   83.4037   13.1594 C.ar    1  UNL1        0.0031
      6 C          62.7580   83.6045   11.9767 C.ar    1  UNL1        0.0372
      7 C          62.4200   84.9922   11.5186 C.ar    1  UNL1        0.1420
      8 O          61.5195   85.1931   10.3358 O.3     1  UNL1       -0.4541
      9 C          61.1814   86.5808    9.8777 C.ar    1  UNL1        0.1420
     10 C          60.2809   86.7816    8.6950 C.ar    1  UNL1        0.0372
     11 C          59.9429   88.1693    8.2368 C.ar    1  UNL1        0.0031
     12 C          60.5053   89.3562    8.9613 C.ar    1  UNL1       -0.0001
     13 C          61.4058   89.1554   10.1440 C.ar    1  UNL1       -0.0005
     14 C          61.7439   87.7677   10.6022 C.ar    1  UNL1        0.0249
     15 N          63.5168   88.6607   13.9740 N.am    1  UNL1       -0.2636
     16 C          63.2069   88.7537   12.5094 C.2     1  UNL1        0.2355
     17 O          63.4594   90.0338   11.7691 O.2     1  UNL1       -0.2740
     18 H          63.3510   87.8206   14.4598 H       1  UNL1        0.1568
     19 C          65.5028   91.7145   15.3139 C.ar    1  UNL1        0.1576
     20 C          64.3868   91.6335   16.3130 C.ar    1  UNL1        0.0677
     21 S          63.5071   90.4797   15.9326 S.2     1  UNL1       -0.0501
     22 C          64.0792   89.8476   14.6985 C.ar    1  UNL1        0.1663
     23 N          65.3127   90.6108   14.3162 N.ar    1  UNL1       -0.2135
     24 N          67.7247   93.7302   15.3117 N.1     1  UNL1       -0.1892
     25 C          66.6138   92.7224   15.3128 C.1     1  UNL1        0.1204
@<TRIPOS>BOND
     1    24    25    3
     2    25    19    1
     3    19    20   ar
     4    20    21   ar
     5    21    22   ar
     6    22    15    1
     7    15    16   am
     8    16    17    2
     9    16     1    1
    10     1     2    1
    11     2     3   ar
    12     3     4   ar
    13     4     5   ar
    14     5     6   ar
    15     6     7   ar
    16     7     8    1
    17     8     9    1
    18     9    10   ar
    19    10    11   ar
    20    11    12   ar
    21    12    13   ar
    22    13    14   ar
    23    22    23   ar
    24    23    19   ar
    25    14     1    1
    26     7     2   ar
    27    14     9   ar
    28    15    18    1
@<TRIPOS>MOLECULE
*****
 25 28 0 0 0
SMALL
GASTEIGER

@<TRIPOS>ATOM
      1 C          62.9963   88.5351   12.2818 C.3     1  UNL1        0.1270
      2 C          63.3911   87.3226   13.0718 C.ar    1  UNL1        0.0249
      3 C          64.3725   87.4487   14.1991 C.ar    1  UNL1       -0.0005
      4 C          64.7672   86.2362   14.9890 C.ar    1  UNL1       -0.0001
      5 C          64.1806   84.8975   14.6515 C.ar    1  UNL1        0.0031
      6 C          63.1992   84.7714   13.5242 C.ar    1  UNL1        0.0372
      7 C          62.8044   85.9839   12.7343 C.ar    1  UNL1        0.1420
      8 O          61.8230   85.8578   11.6070 O.3     1  UNL1       -0.4541
      9 C          61.4282   87.0703   10.8171 C.ar    1  UNL1        0.1420
     10 C          60.4468   86.9443    9.6897 C.ar    1  UNL1        0.0372
     11 C          60.0520   88.1568    8.8998 C.ar    1  UNL1        0.0031
     12 C          60.6387   89.4954    9.2372 C.ar    1  UNL1       -0.0001
     13 C          61.6201   89.6215   10.3645 C.ar    1  UNL1       -0.0005
     14 C          62.0149   88.4090   11.1545 C.ar    1  UNL1        0.0249
     15 N          64.6089   90.4921   11.7164 N.am    1  UNL1       -0.2636
     16 C          63.5830   89.8737   12.6192 C.2     1  UNL1        0.2355
     17 O          63.1438   90.5940   13.8596 O.2     1  UNL1       -0.2740
     18 H          64.8971   90.0194   10.9024 H       1  UNL1        0.1568
     19 C          65.9547   94.1293   11.8767 C.ar    1  UNL1        0.1576
     20 C          66.2421   93.6522   13.2695 C.ar    1  UNL1        0.0677
     21 S          65.7729   92.2317   13.3789 S.2     1  UNL1       -0.0501
     22 C          65.1956   91.8308   12.0538 C.ar    1  UNL1        0.1663
     23 N          65.3079   93.0035   11.1254 N.ar    1  UNL1       -0.2135
     24 N          66.5660   96.8560   10.7853 N.1     1  UNL1       -0.1892
     25 C          66.2603   95.4926   11.3310 C.1     1  UNL1        0.1204
@<TRIPOS>BOND
     1    24    25    3
     2    25    19    1
     3    19    20   ar
     4    20    21   ar
     5    21    22   ar
     6    22    15    1
     7    15    16   am
     8    16    17    2
     9    16     1    1
    10     1     2    1
    11     2     3   ar
    12     3     4   ar
    13     4     5   ar
    14     5     6   ar
    15     6     7   ar
    16     7     8    1
    17     8     9    1
    18     9    10   ar
    19    10    11   ar
    20    11    12   ar
    21    12    13   ar
    22    13    14   ar
    23    22    23   ar
    24    23    19   ar
    25    14     1    1
    26     7     2   ar
    27    14     9   ar
    28    15    18    1
@<TRIPOS>MOLECULE
*****
 25 28 0 0 0
SMALL
GASTEIGER

@<TRIPOS>ATOM
      1 C          63.1737   88.6560   12.6267 C.3     1  UNL1        0.1270
      2 C          62.1980   88.7408   11.4904 C.ar    1  UNL1        0.0249
      3 C          61.8820   90.0697   10.8707 C.ar    1  UNL1       -0.0005
      4 C          60.9064   90.1544    9.7346 C.ar    1  UNL1       -0.0001
      5 C          60.2467   88.9102    9.2182 C.ar    1  UNL1        0.0031
      6 C          60.5626   87.5813    9.8379 C.ar    1  UNL1        0.0372
      7 C          61.5383   87.4966   10.9740 C.ar    1  UNL1        0.1420
      8 O          61.8543   86.1676   11.5938 O.3     1  UNL1       -0.4541
      9 C          62.8300   86.0829   12.7299 C.ar    1  UNL1        0.1420
     10 C          63.1460   84.7539   13.3497 C.ar    1  UNL1        0.0372
     11 C          64.1216   84.6692   14.4859 C.ar    1  UNL1        0.0031
     12 C          64.7813   85.9134   15.0023 C.ar    1  UNL1       -0.0001
     13 C          64.4654   87.2424   14.3826 C.ar    1  UNL1       -0.0005
     14 C          63.4897   87.3271   13.2464 C.ar    1  UNL1        0.0249
     15 N          64.9997   90.4912   12.4080 N.am    1  UNL1       -0.2636
     16 C          63.8334   89.9003   13.1431 C.2     1  UNL1        0.2355
     17 O          63.3267   90.5536   14.3947 O.2     1  UNL1       -0.2740
     18 H          65.3323   90.0624   11.5865 H       1  UNL1        0.1568
     19 C          66.9807   93.2555   14.2787 C.ar    1  UNL1        0.1576
     20 C          66.3686   94.0446   13.1595 C.ar    1  UNL1        0.0677
     21 S          65.5520   93.1051   12.3225 S.2     1  UNL1       -0.0501
     22 C          65.6594   91.7354   12.9244 C.ar    1  UNL1        0.1663
     23 N          66.5424   91.8284   14.1334 N.ar    1  UNL1       -0.2135
     24 N          68.7677   94.3410   16.4301 N.1     1  UNL1       -0.1892
     25 C          67.8742   93.7983   15.3544 C.1     1  UNL1        0.1204
@<TRIPOS>BOND
     1    24    25    3
     2    25    19    1
     3    19    20   ar
     4    20    21   ar
     5    21    22   ar
     6    22    15    1
     7    15    16   am
     8    16    17    2
     9    16     1    1
    10     1     2    1
    11     2     3   ar
    12     3     4   ar
    13     4     5   ar
    14     5     6   ar
    15     6     7   ar
    16     7     8    1
    17     8     9    1
    18     9    10   ar
    19    10    11   ar
    20    11    12   ar
    21    12    13   ar
    22    13    14   ar
    23    22    23   ar
    24    23    19   ar
    25    14     1    1
    26     7     2   ar
    27    14     9   ar
    28    15    18    1
@<TRIPOS>MOLECULE
*****
 25 28 0 0 0
SMALL
GASTEIGER

@<TRIPOS>ATOM
      1 C          62.7883   88.5417   11.9395 C.3     1  UNL1        0.1270
      2 C          61.8139   88.4810   10.8006 C.ar    1  UNL1        0.0249
      3 C          61.4618   89.7294   10.0475 C.ar    1  UNL1       -0.0005
      4 C          60.4875   89.6687    8.9087 C.ar    1  UNL1       -0.0001
      5 C          59.8653   88.3594    8.5230 C.ar    1  UNL1        0.0031
      6 C          60.2174   87.1110    9.2762 C.ar    1  UNL1        0.0372
      7 C          61.1917   87.1717   10.4150 C.ar    1  UNL1        0.1420
      8 O          61.5439   85.9232   11.1682 O.3     1  UNL1       -0.4541
      9 C          62.5182   85.9840   12.3070 C.ar    1  UNL1        0.1420
     10 C          62.8704   84.7354   13.0602 C.ar    1  UNL1        0.0372
     11 C          63.8447   84.7962   14.1990 C.ar    1  UNL1        0.0031
     12 C          64.4670   86.1054   14.5847 C.ar    1  UNL1       -0.0001
     13 C          64.1149   87.3539   13.8315 C.ar    1  UNL1       -0.0005
     14 C          63.1405   87.2932   12.6926 C.ar    1  UNL1        0.0249
     15 N          64.3893   90.5164   11.4037 N.am    1  UNL1       -0.2636
     16 C          63.4106   89.8509   12.3252 C.2     1  UNL1        0.2355
     17 O          63.0540   90.4946   13.6323 O.2     1  UNL1       -0.2740
     18 H          64.6233   90.0940   10.5458 H       1  UNL1        0.1568
     19 C          65.8321   94.1079   11.6957 C.ar    1  UNL1        0.1576
     20 C          66.1060   93.5729   13.0700 C.ar    1  UNL1        0.0677
     21 S          65.5989   92.1624   13.1279 S.2     1  UNL1       -0.0501
     22 C          65.0116   91.8257   11.7894 C.ar    1  UNL1        0.1663
     23 N          65.1557   93.0281   10.9043 N.ar    1  UNL1       -0.2135
     24 N          66.5169   96.8552   10.7041 N.1     1  UNL1       -0.1892
     25 C          66.1745   95.4816   11.1999 C.1     1  UNL1        0.1204
@<TRIPOS>BOND
     1    24    25    3
     2    25    19    1
     3    19    20   ar
     4    20    21   ar
     5    21    22   ar
     6    22    15    1
     7    15    16   am
     8    16    17    2
     9    16     1    1
    10     1     2    1
    11     2     3   ar
    12     3     4   ar
    13     4     5   ar
    14     5     6   ar
    15     6     7   ar
    16     7     8    1
    17     8     9    1
    18     9    10   ar
    19    10    11   ar
    20    11    12   ar
    21    12    13   ar
    22    13    14   ar
    23    22    23   ar
    24    23    19   ar
    25    14     1    1
    26     7     2   ar
    27    14     9   ar
    28    15    18    1
