@<TRIPOS>MOLECULE
*****
 25 28 0 0 0
SMALL
GASTEIGER

@<TRIPOS>ATOM
      1 C          63.2928   83.0101   11.1076 C.3     1  UNL1        0.0326
      2 C          63.2824   84.3430   11.7954 C.ar    1  UNL1       -0.0037
      3 C          64.0083   84.5216   13.0958 C.ar    1  UNL1        0.0086
      4 C          63.9980   85.8546   13.7837 C.ar    1  UNL1        0.0574
      5 CL         64.7239   86.0332   15.0841 Cl      1  UNL1       -0.0823
      6 C          63.2618   87.0090   13.1711 C.ar    1  UNL1        0.0126
      7 C          62.5359   86.8304   11.8705 C.ar    1  UNL1        0.0164
      8 C          61.7996   87.9849   11.2579 C.2     1  UNL1        0.0124
      9 C          61.0737   87.8063    9.9575 C.2     1  UNL1        0.0386
     10 C          60.2677   88.7540    9.1196 C.2     1  UNL1        0.0801
     11 C          59.9970   90.1958    9.4324 C.3     1  UNL1        0.0538
     12 N          59.7798   88.0067    7.9139 N.2     1  UNL1       -0.1551
     13 N          60.2844   86.5972    8.0067 N.2     1  UNL1       -0.1469
     14 C          61.0841   86.4733    9.2697 C.3     1  UNL1        0.2503
     15 N          61.8203   85.3189    9.8823 N.2     1  UNL1       -0.2427
     16 C          62.5462   85.4975   11.1828 C.ar    1  UNL1        0.0743
     17 C          61.7893   89.3178   11.9458 C.3     1  UNL1        0.1721
     18 O          60.6808   89.6631   12.8955 O.3     1  UNL1       -0.3742
     19 H          60.0590   88.9206   12.9503 H       1  UNL1        0.2113
     20 C          62.8874   90.3055   11.6839 C.ar    1  UNL1        0.0888
     21 C          63.2173   90.9264   10.3589 C.ar    1  UNL1        0.1161
     22 N          64.3823   91.8502   10.5572 N.ar    1  UNL1       -0.2226
     23 C          64.7724   91.8003   12.0047 C.ar    1  UNL1        0.1784
     24 N          63.8485   90.8456   12.7010 N.ar    1  UNL1       -0.3082
     25 C          63.8802   90.4928   14.1587 C.3     1  UNL1        0.1318
@<TRIPOS>BOND
     1     1     2    1
     2     2     3   ar
     3     3     4   ar
     4     4     5    1
     5     4     6   ar
     6     6     7   ar
     7     7     8    2
     8     8    17    1
     9    17    18    1
    10    17    20    1
    11    20    21   ar
    12    21    22   ar
    13    22    23   ar
    14    23    24   ar
    15    24    25    1
    16     8     9    1
    17     9    10    2
    18    10    11    1
    19    10    12    1
    20    12    13    2
    21    13    14    1
    22    14    15    1
    23    15    16    2
    24    16     2   ar
    25    16     7   ar
    26    24    20   ar
    27    14     9    1
    28    18    19    1
@<TRIPOS>MOLECULE
*****
 25 28 0 0 0
SMALL
GASTEIGER

@<TRIPOS>ATOM
      1 C          61.2630   86.8284    8.9799 C.3     1  UNL1        0.0326
      2 C          61.9767   87.2181   10.2403 C.ar    1  UNL1       -0.0037
      3 C          62.2314   88.6653   10.5413 C.ar    1  UNL1        0.0086
      4 C          62.9451   89.0550   11.8017 C.ar    1  UNL1        0.0574
      5 CL         63.1998   90.5023   12.1027 Cl      1  UNL1       -0.0823
      6 C          63.4041   87.9974   12.7613 C.ar    1  UNL1        0.0126
      7 C          63.1494   86.5501   12.4603 C.ar    1  UNL1        0.0164
      8 C          63.6085   85.4924   13.4200 C.2     1  UNL1        0.0124
      9 C          63.3538   84.0452   13.1190 C.2     1  UNL1        0.0386
     10 C          63.6865   82.7902   13.8702 C.2     1  UNL1        0.0801
     11 C          64.4017   82.7139   15.1865 C.3     1  UNL1        0.0538
     12 N          63.1784   81.6249   13.0740 N.2     1  UNL1       -0.1551
     13 N          62.5317   82.1597   11.8307 N.2     1  UNL1       -0.1469
     14 C          62.6401   83.6556   11.8585 C.3     1  UNL1        0.2503
     15 N          62.1810   84.7132   10.8990 N.2     1  UNL1       -0.2427
     16 C          62.4358   86.1604   11.1999 C.ar    1  UNL1        0.0743
     17 C          64.3222   85.8822   14.6805 C.3     1  UNL1        0.1721
     18 O          65.8208   85.8486   14.7347 O.3     1  UNL1       -0.3742
     19 H          66.1689   85.5552   13.8782 H       1  UNL1        0.2113
     20 C          63.5373   86.3054   15.8866 C.ar    1  UNL1        0.0888
     21 C          62.8001   85.3945   16.8230 C.ar    1  UNL1        0.1161
     22 N          62.1590   86.2401   17.8832 N.ar    1  UNL1       -0.2226
     23 C          62.4998   87.6735   17.6020 C.ar    1  UNL1        0.1784
     24 N          63.3517   87.7139   16.3680 N.ar    1  UNL1       -0.3082
     25 C          63.9184   88.9464   15.7278 C.3     1  UNL1        0.1318
@<TRIPOS>BOND
     1     1     2    1
     2     2     3   ar
     3     3     4   ar
     4     4     5    1
     5     4     6   ar
     6     6     7   ar
     7     7     8    2
     8     8    17    1
     9    17    18    1
    10    17    20    1
    11    20    21   ar
    12    21    22   ar
    13    22    23   ar
    14    23    24   ar
    15    24    25    1
    16     8     9    1
    17     9    10    2
    18    10    11    1
    19    10    12    1
    20    12    13    2
    21    13    14    1
    22    14    15    1
    23    15    16    2
    24    16     2   ar
    25    16     7   ar
    26    24    20   ar
    27    14     9    1
    28    18    19    1
@<TRIPOS>MOLECULE
*****
 25 28 0 0 0
SMALL
GASTEIGER

@<TRIPOS>ATOM
      1 C          65.1384   85.5410   15.1297 C.3     1  UNL1        0.0326
      2 C          64.1526   85.2344   14.0416 C.ar    1  UNL1       -0.0037
      3 C          63.7305   83.8173   13.7895 C.ar    1  UNL1        0.0086
      4 C          62.7447   83.5106   12.7013 C.ar    1  UNL1        0.0574
      5 CL         62.3226   82.0935   12.4492 Cl      1  UNL1       -0.0823
      6 C          62.1810   84.6211   11.8653 C.ar    1  UNL1        0.0126
      7 C          62.6031   86.0383   12.1174 C.ar    1  UNL1        0.0164
      8 C          62.0393   87.1488   11.2813 C.2     1  UNL1        0.0124
      9 C          62.4614   88.5659   11.5334 C.2     1  UNL1        0.0386
     10 C          62.0789   89.8590   10.8765 C.2     1  UNL1        0.0801
     11 C          61.1161   90.0184    9.7374 C.3     1  UNL1        0.0538
     12 N          62.8284   90.9649   11.5587 N.2     1  UNL1       -0.1551
     13 N          63.6741   90.3552   12.6372 N.2     1  UNL1       -0.1469
     14 C          63.4472   88.8725   12.6216 C.3     1  UNL1        0.2503
     15 N          64.0109   87.7620   13.4577 N.2     1  UNL1       -0.2427
     16 C          63.5888   86.3449   13.2055 C.ar    1  UNL1        0.0743
     17 C          61.0534   86.8421   10.1931 C.3     1  UNL1        0.1721
     18 O          59.6186   87.2527   10.3435 O.3     1  UNL1       -0.3742
     19 H          59.4983   87.7017   11.1949 H       1  UNL1        0.2113
     20 C          61.5025   86.1248    8.9546 C.ar    1  UNL1        0.0888
     21 C          62.8477   85.4977    8.7377 C.ar    1  UNL1        0.1161
     22 N          62.8616   84.8940    7.3646 N.ar    1  UNL1       -0.2226
     23 C          61.5251   85.1480    6.7330 C.ar    1  UNL1        0.1784
     24 N          60.6851   85.9087    7.7157 N.ar    1  UNL1       -0.3082
     25 C          59.2751   86.3719    7.4976 C.3     1  UNL1        0.1318
@<TRIPOS>BOND
     1     1     2    1
     2     2     3   ar
     3     3     4   ar
     4     4     5    1
     5     4     6   ar
     6     6     7   ar
     7     7     8    2
     8     8    17    1
     9    17    18    1
    10    17    20    1
    11    20    21   ar
    12    21    22   ar
    13    22    23   ar
    14    23    24   ar
    15    24    25    1
    16     8     9    1
    17     9    10    2
    18    10    11    1
    19    10    12    1
    20    12    13    2
    21    13    14    1
    22    14    15    1
    23    15    16    2
    24    16     2   ar
    25    16     7   ar
    26    24    20   ar
    27    14     9    1
    28    18    19    1
@<TRIPOS>MOLECULE
*****
 25 28 0 0 0
SMALL
GASTEIGER

@<TRIPOS>ATOM
      1 C          61.0149   89.9129   10.3951 C.3     1  UNL1        0.0326
      2 C          61.2335   88.4451   10.1769 C.ar    1  UNL1       -0.0037
      3 C          60.6190   87.7636    8.9904 C.ar    1  UNL1        0.0086
      4 C          60.8376   86.2957    8.7722 C.ar    1  UNL1        0.0574
      5 CL         60.2231   85.6141    7.5856 Cl      1  UNL1       -0.0823
      6 C          61.6705   85.5094    9.7406 C.ar    1  UNL1        0.0126
      7 C          62.2850   86.1910   10.9272 C.ar    1  UNL1        0.0164
      8 C          63.1180   85.4046   11.8957 C.2     1  UNL1        0.0124
      9 C          63.7324   86.0861   13.0822 C.2     1  UNL1        0.0386
     10 C          64.5947   85.5750   14.1981 C.2     1  UNL1        0.0801
     11 C          65.0608   84.1602   14.3751 C.3     1  UNL1        0.0538
     12 N          64.9090   86.7270   15.1059 N.2     1  UNL1       -0.1551
     13 N          64.2411   87.9501   14.5511 N.2     1  UNL1       -0.1469
     14 C          63.5138   87.5540   13.3004 C.3     1  UNL1        0.2503
     15 N          62.6809   88.3403   12.3319 N.2     1  UNL1       -0.2427
     16 C          62.0665   87.6587   11.1454 C.ar    1  UNL1        0.0743
     17 C          63.3365   83.9366   11.6775 C.3     1  UNL1        0.1721
     18 O          64.2125   83.4678   10.5537 O.3     1  UNL1       -0.3742
     19 H          64.5558   84.2350   10.0696 H       1  UNL1        0.2113
     20 C          62.6790   82.9378   12.5829 C.ar    1  UNL1        0.0888
     21 C          62.0613   83.2306   13.9181 C.ar    1  UNL1        0.1161
     22 N          61.5244   81.9445   14.4725 N.ar    1  UNL1       -0.2226
     23 C          61.8102   80.8567   13.4800 C.ar    1  UNL1        0.1784
     24 N          62.5238   81.4706   12.3122 N.ar    1  UNL1       -0.3082
     25 C          62.9988   80.7447   11.0884 C.3     1  UNL1        0.1318
@<TRIPOS>BOND
     1     1     2    1
     2     2     3   ar
     3     3     4   ar
     4     4     5    1
     5     4     6   ar
     6     6     7   ar
     7     7     8    2
     8     8    17    1
     9    17    18    1
    10    17    20    1
    11    20    21   ar
    12    21    22   ar
    13    22    23   ar
    14    23    24   ar
    15    24    25    1
    16     8     9    1
    17     9    10    2
    18    10    11    1
    19    10    12    1
    20    12    13    2
    21    13    14    1
    22    14    15    1
    23    15    16    2
    24    16     2   ar
    25    16     7   ar
    26    24    20   ar
    27    14     9    1
    28    18    19    1
@<TRIPOS>MOLECULE
*****
 25 28 0 0 0
SMALL
GASTEIGER

@<TRIPOS>ATOM
      1 C          63.6430   90.8910    3.3168 C.3     1  UNL1        0.0326
      2 C          62.3513   91.6335    3.1436 C.ar    1  UNL1       -0.0037
      3 C          61.2440   91.4544    4.1394 C.ar    1  UNL1        0.0086
      4 C          59.9521   92.1969    3.9663 C.ar    1  UNL1        0.0574
      5 CL         58.8448   92.0178    4.9621 Cl      1  UNL1       -0.0823
      6 C          59.7677   93.1185    2.7973 C.ar    1  UNL1        0.0126
      7 C          60.8752   93.2977    1.8014 C.ar    1  UNL1        0.0164
      8 C          60.6907   94.2194    0.6324 C.2     1  UNL1        0.0124
      9 C          61.7981   94.3985   -0.3634 C.2     1  UNL1        0.0386
     10 C          61.9056   95.2323   -1.6056 C.2     1  UNL1        0.0801
     11 C          60.8418   96.1349   -2.1565 C.3     1  UNL1        0.0538
     12 N          63.2639   95.0052   -2.2001 N.2     1  UNL1       -0.1551
     13 N          63.9958   94.0309   -1.3254 N.2     1  UNL1       -0.1469
     14 C          63.0898   93.6559   -0.1902 C.3     1  UNL1        0.2503
     15 N          63.2742   92.7343    0.9788 N.2     1  UNL1       -0.2427
     16 C          62.1669   92.5552    1.9746 C.ar    1  UNL1        0.0743
     17 C          59.3989   94.9619    0.4593 C.3     1  UNL1        0.1721
     18 O          59.2389   96.3346    1.0424 O.3     1  UNL1       -0.3742
     19 H          60.0576   96.5909    1.4952 H       1  UNL1        0.2113
     20 C          58.2671   94.3316   -0.2969 C.ar    1  UNL1        0.0888
     21 C          57.9649   92.8643   -0.3706 C.ar    1  UNL1        0.1161
     22 N          56.7498   92.6840   -1.2315 N.ar    1  UNL1       -0.2226
     23 C          56.3011   94.0398   -1.6898 C.ar    1  UNL1        0.1784
     24 N          57.2388   95.0582   -1.1122 N.ar    1  UNL1       -0.3082
     25 C          57.1618   96.5426   -1.3145 C.3     1  UNL1        0.1318
@<TRIPOS>BOND
     1     1     2    1
     2     2     3   ar
     3     3     4   ar
     4     4     5    1
     5     4     6   ar
     6     6     7   ar
     7     7     8    2
     8     8    17    1
     9    17    18    1
    10    17    20    1
    11    20    21   ar
    12    21    22   ar
    13    22    23   ar
    14    23    24   ar
    15    24    25    1
    16     8     9    1
    17     9    10    2
    18    10    11    1
    19    10    12    1
    20    12    13    2
    21    13    14    1
    22    14    15    1
    23    15    16    2
    24    16     2   ar
    25    16     7   ar
    26    24    20   ar
    27    14     9    1
    28    18    19    1
@<TRIPOS>MOLECULE
*****
 25 28 0 0 0
SMALL
GASTEIGER

@<TRIPOS>ATOM
      1 C          63.8914   83.9079   15.3355 C.3     1  UNL1        0.0326
      2 C          63.5282   83.8643   13.8809 C.ar    1  UNL1       -0.0037
      3 C          63.3712   82.5442   13.1863 C.ar    1  UNL1        0.0086
      4 C          63.0080   82.5006   11.7315 C.ar    1  UNL1        0.0574
      5 CL         62.8510   81.1804   11.0369 Cl      1  UNL1       -0.0823
      6 C          62.8018   83.7772   10.9715 C.ar    1  UNL1        0.0126
      7 C          62.9588   85.0974   11.6661 C.ar    1  UNL1        0.0164
      8 C          62.7525   86.3741   10.9060 C.2     1  UNL1        0.0124
      9 C          62.9095   87.6942   11.6007 C.2     1  UNL1        0.0386
     10 C          62.7703   89.1066   11.1152 C.2     1  UNL1        0.0801
     11 C          62.4160   89.5285    9.7200 C.3     1  UNL1        0.0538
     12 N          63.0474   90.0230   12.2699 N.2     1  UNL1       -0.1551
     13 N          63.3580   89.1771   13.4690 N.2     1  UNL1       -0.1469
     14 C          63.2728   87.7377   13.0554 C.3     1  UNL1        0.2503
     15 N          63.4790   86.4611   13.8154 N.2     1  UNL1       -0.2427
     16 C          63.3220   85.1410   13.1208 C.ar    1  UNL1        0.0743
     17 C          62.3893   86.3305    9.4513 C.3     1  UNL1        0.1721
     18 O          63.4433   86.0428    8.4235 O.3     1  UNL1       -0.3742
     19 H          64.2971   85.9102    8.8642 H       1  UNL1        0.2113
     20 C          60.9722   86.5745    9.0244 C.ar    1  UNL1        0.0888
     21 C          59.9613   87.4055    9.7575 C.ar    1  UNL1        0.1161
     22 N          58.6816   87.3750    8.9757 N.ar    1  UNL1       -0.2226
     23 C          58.9015   86.5252    7.7594 C.ar    1  UNL1        0.1784
     24 N          60.3173   86.0305    7.7895 N.ar    1  UNL1       -0.3082
     25 C          60.9645   85.1469    6.7646 C.3     1  UNL1        0.1318
@<TRIPOS>BOND
     1     1     2    1
     2     2     3   ar
     3     3     4   ar
     4     4     5    1
     5     4     6   ar
     6     6     7   ar
     7     7     8    2
     8     8    17    1
     9    17    18    1
    10    17    20    1
    11    20    21   ar
    12    21    22   ar
    13    22    23   ar
    14    23    24   ar
    15    24    25    1
    16     8     9    1
    17     9    10    2
    18    10    11    1
    19    10    12    1
    20    12    13    2
    21    13    14    1
    22    14    15    1
    23    15    16    2
    24    16     2   ar
    25    16     7   ar
    26    24    20   ar
    27    14     9    1
    28    18    19    1
@<TRIPOS>MOLECULE
*****
 25 28 0 0 0
SMALL
GASTEIGER

@<TRIPOS>ATOM
      1 C          64.2964   90.0626   14.8846 C.3     1  UNL1        0.0326
      2 C          63.8147   89.6227   13.5340 C.ar    1  UNL1       -0.0037
      3 C          63.5586   90.6395   12.4613 C.ar    1  UNL1        0.0086
      4 C          63.0769   90.1997   11.1105 C.ar    1  UNL1        0.0574
      5 CL         62.8209   91.2164   10.0378 Cl      1  UNL1       -0.0823
      6 C          62.8513   88.7430   10.8325 C.ar    1  UNL1        0.0126
      7 C          63.1074   87.7262   11.9052 C.ar    1  UNL1        0.0164
      8 C          62.8817   86.2695   11.6271 C.2     1  UNL1        0.0124
      9 C          63.1378   85.2528   12.6997 C.2     1  UNL1        0.0386
     10 C          63.0056   83.7588   12.7186 C.2     1  UNL1        0.0801
     11 C          62.5529   82.8992   11.5757 C.3     1  UNL1        0.0538
     12 N          63.4056   83.2753   14.0810 N.2     1  UNL1       -0.1551
     13 N          63.7850   84.4705   14.9042 N.2     1  UNL1       -0.1469
     14 C          63.6194   85.6927   14.0505 C.3     1  UNL1        0.2503
     15 N          63.8451   87.1493   14.3285 N.2     1  UNL1       -0.2427
     16 C          63.5890   88.1661   13.2559 C.ar    1  UNL1        0.0743
     17 C          62.4000   85.8297   10.2763 C.3     1  UNL1        0.1721
     18 O          63.1885   84.8253    9.4893 O.3     1  UNL1       -0.3742
     19 H          63.9751   84.5648    9.9937 H       1  UNL1        0.2113
     20 C          61.1299   86.3944    9.7125 C.ar    1  UNL1        0.0888
     21 C          60.1590   87.2777   10.4386 C.ar    1  UNL1        0.1161
     22 N          59.0367   87.6041    9.4984 N.ar    1  UNL1       -0.2226
     23 C          59.3140   86.9226    8.1913 C.ar    1  UNL1        0.1784
     24 N          60.6076   86.1750    8.3236 N.ar    1  UNL1       -0.3082
     25 C          61.2638   85.3523    7.2546 C.3     1  UNL1        0.1318
@<TRIPOS>BOND
     1     1     2    1
     2     2     3   ar
     3     3     4   ar
     4     4     5    1
     5     4     6   ar
     6     6     7   ar
     7     7     8    2
     8     8    17    1
     9    17    18    1
    10    17    20    1
    11    20    21   ar
    12    21    22   ar
    13    22    23   ar
    14    23    24   ar
    15    24    25    1
    16     8     9    1
    17     9    10    2
    18    10    11    1
    19    10    12    1
    20    12    13    2
    21    13    14    1
    22    14    15    1
    23    15    16    2
    24    16     2   ar
    25    16     7   ar
    26    24    20   ar
    27    14     9    1
    28    18    19    1
@<TRIPOS>MOLECULE
*****
 25 28 0 0 0
SMALL
GASTEIGER

@<TRIPOS>ATOM
      1 C          60.5494   85.1164    7.3499 C.3     1  UNL1        0.0326
      2 C          60.5663   86.4515    8.0332 C.ar    1  UNL1       -0.0037
      3 C          59.8675   87.6226    7.4087 C.ar    1  UNL1        0.0086
      4 C          59.8844   88.9578    8.0921 C.ar    1  UNL1        0.0574
      5 CL         59.1856   90.1290    7.4675 Cl      1  UNL1       -0.0823
      6 C          60.6001   89.1218    9.4001 C.ar    1  UNL1        0.0126
      7 C          61.2989   87.9506   10.0247 C.ar    1  UNL1        0.0164
      8 C          62.0146   88.1147   11.3328 C.2     1  UNL1        0.0124
      9 C          62.7134   86.9436   11.9573 C.2     1  UNL1        0.0386
     10 C          63.4953   86.8032   13.2297 C.2     1  UNL1        0.0801
     11 C          63.7637   87.8933   14.2244 C.3     1  UNL1        0.0538
     12 N          63.9617   85.3812   13.3326 N.2     1  UNL1       -0.1551
     13 N          63.4680   84.6428   12.1238 N.2     1  UNL1       -0.1469
     14 C          62.6965   85.6084   11.2739 C.3     1  UNL1        0.2503
     15 N          61.9808   85.4444    9.9659 N.2     1  UNL1       -0.2427
     16 C          61.2820   86.6155    9.3413 C.ar    1  UNL1        0.0743
     17 C          62.0315   89.4499   12.0162 C.3     1  UNL1        0.1721
     18 O          61.0064   89.7692   13.0637 O.3     1  UNL1       -0.3742
     19 H          60.4128   89.0104   13.1771 H       1  UNL1        0.2113
     20 C          63.0733   90.4657   11.6520 C.ar    1  UNL1        0.0888
     21 C          63.3635   90.9751   10.2713 C.ar    1  UNL1        0.1161
     22 N          64.4774   91.9747   10.3707 N.ar    1  UNL1       -0.2226
     23 C          64.8757   92.0832   11.8127 C.ar    1  UNL1        0.1784
     24 N          64.0078   91.1506   12.6046 N.ar    1  UNL1       -0.3082
     25 C          64.0646   90.9398   14.0887 C.3     1  UNL1        0.1318
@<TRIPOS>BOND
     1     1     2    1
     2     2     3   ar
     3     3     4   ar
     4     4     5    1
     5     4     6   ar
     6     6     7   ar
     7     7     8    2
     8     8    17    1
     9    17    18    1
    10    17    20    1
    11    20    21   ar
    12    21    22   ar
    13    22    23   ar
    14    23    24   ar
    15    24    25    1
    16     8     9    1
    17     9    10    2
    18    10    11    1
    19    10    12    1
    20    12    13    2
    21    13    14    1
    22    14    15    1
    23    15    16    2
    24    16     2   ar
    25    16     7   ar
    26    24    20   ar
    27    14     9    1
    28    18    19    1
@<TRIPOS>MOLECULE
*****
 25 28 0 0 0
SMALL
GASTEIGER

@<TRIPOS>ATOM
      1 C          61.2078   86.8333    8.9735 C.3     1  UNL1        0.0326
      2 C          61.8593   86.3161   10.2216 C.ar    1  UNL1       -0.0037
      3 C          61.8950   84.8414   10.4932 C.ar    1  UNL1        0.0086
      4 C          62.5466   84.3241   11.7414 C.ar    1  UNL1        0.0574
      5 CL         62.5823   82.8494   12.0131 Cl      1  UNL1       -0.0823
      6 C          63.1624   85.2817   12.7180 C.ar    1  UNL1        0.0126
      7 C          63.1267   86.7566   12.4464 C.ar    1  UNL1        0.0164
      8 C          63.7426   87.7142   13.4230 C.2     1  UNL1        0.0124
      9 C          63.7069   89.1889   13.1514 C.2     1  UNL1        0.0386
     10 C          64.2268   90.3647   13.9242 C.2     1  UNL1        0.0801
     11 C          64.9500   90.3068   15.2371 C.3     1  UNL1        0.0538
     12 N          63.8966   91.6085   13.1536 N.2     1  UNL1       -0.1551
     13 N          63.1726   91.2015   11.9045 N.2     1  UNL1       -0.1469
     14 C          63.0553   89.7061   11.9031 C.3     1  UNL1        0.2503
     15 N          62.4395   88.7485   10.9266 N.2     1  UNL1       -0.2427
     16 C          62.4752   87.2737   11.1982 C.ar    1  UNL1        0.0743
     17 C          64.3942   87.1969   14.6712 C.3     1  UNL1        0.1721
     18 O          65.8646   86.9009   14.6822 O.3     1  UNL1       -0.3742
     19 H          66.2404   87.0970   13.8098 H       1  UNL1        0.2113
     20 C          63.5753   86.9758   15.9083 C.ar    1  UNL1        0.0888
     21 C          63.1057   88.0389   16.8566 C.ar    1  UNL1        0.1161
     22 N          62.3224   87.3727   17.9487 N.ar    1  UNL1       -0.2226
     23 C          62.3078   85.8979   17.6754 C.ar    1  UNL1        0.1784
     24 N          63.0822   85.6526   16.4143 N.ar    1  UNL1       -0.3082
     25 C          63.3214   84.3183   15.7720 C.3     1  UNL1        0.1318
@<TRIPOS>BOND
     1     1     2    1
     2     2     3   ar
     3     3     4   ar
     4     4     5    1
     5     4     6   ar
     6     6     7   ar
     7     7     8    2
     8     8    17    1
     9    17    18    1
    10    17    20    1
    11    20    21   ar
    12    21    22   ar
    13    22    23   ar
    14    23    24   ar
    15    24    25    1
    16     8     9    1
    17     9    10    2
    18    10    11    1
    19    10    12    1
    20    12    13    2
    21    13    14    1
    22    14    15    1
    23    15    16    2
    24    16     2   ar
    25    16     7   ar
    26    24    20   ar
    27    14     9    1
    28    18    19    1
