@<TRIPOS>MOLECULE
*****
 20 22 0 0 0
SMALL
GASTEIGER

@<TRIPOS>ATOM
      1 C          62.2074   88.4267   10.4300 C.2     1  UNL1        0.0421
      2 C          61.9922   89.8540   10.8378 C.2     1  UNL1        0.0033
      3 C          63.1439   90.6714   11.3433 C.ar    1  UNL1        0.0001
      4 C          63.8297   91.6453   10.4316 C.ar    1  UNL1        0.0000
      5 C          64.9814   92.4626   10.9370 C.ar    1  UNL1        0.0000
      6 C          65.4473   92.3062   12.3543 C.ar    1  UNL1        0.0000
      7 C          66.5989   93.1236   12.8598 C.ar    1  UNL1        0.0000
      8 C          67.0647   92.9671   14.2770 C.ar    1  UNL1        0.0000
      9 C          66.3789   91.9932   15.1887 C.ar    1  UNL1        0.0000
     10 C          65.2272   91.1759   14.6832 C.ar    1  UNL1        0.0000
     11 C          64.7614   91.3323   13.2660 C.ar    1  UNL1        0.0000
     12 C          63.6097   90.5149   12.7605 C.ar    1  UNL1        0.0000
     13 O          59.6882   87.7966   10.5117 O.2     1  UNL1       -0.2865
     14 C          61.0557   87.6094    9.9244 C.2     1  UNL1        0.1971
     15 C          61.2715   86.6047    8.8316 C.ar    1  UNL1        0.0581
     16 C          62.6108   85.9491    8.6693 C.ar    1  UNL1        0.0063
     17 C          62.8265   84.9446    7.5765 C.ar    1  UNL1        0.0208
     18 C          61.7029   84.5956    6.6460 C.ar    1  UNL1        0.0989
     19 N          60.3636   85.2512    6.8083 N.ar    1  UNL1       -0.2422
     20 C          60.1479   86.2558    7.9011 C.ar    1  UNL1        0.1020
@<TRIPOS>BOND
     1    13    14    2
     2    14     1    1
     3     1     2    2
     4     2     3    1
     5     3     4   ar
     6     4     5   ar
     7     5     6   ar
     8     6     7   ar
     9     7     8   ar
    10     8     9   ar
    11     9    10   ar
    12    10    11   ar
    13    11    12   ar
    14    14    15    1
    15    15    16   ar
    16    16    17   ar
    17    17    18   ar
    18    18    19   ar
    19    19    20   ar
    20    12     3   ar
    21    20    15   ar
    22    11     6   ar
@<TRIPOS>MOLECULE
*****
 20 22 0 0 0
SMALL
GASTEIGER

@<TRIPOS>ATOM
      1 C          63.1453   89.1114   12.5900 C.2     1  UNL1        0.0421
      2 C          61.8621   89.3472   11.8499 C.2     1  UNL1        0.0033
      3 C          61.4821   88.4559   10.7048 C.ar    1  UNL1        0.0001
      4 C          60.1141   88.5567   10.0979 C.ar    1  UNL1        0.0000
      5 C          59.7340   87.6655    8.9528 C.ar    1  UNL1        0.0000
      6 C          60.7220   86.6734    8.4145 C.ar    1  UNL1        0.0000
      7 C          60.3420   85.7823    7.2694 C.ar    1  UNL1        0.0000
      8 C          61.3300   84.7902    6.7312 C.ar    1  UNL1        0.0000
      9 C          62.6980   84.6894    7.3381 C.ar    1  UNL1        0.0000
     10 C          63.0780   85.5806    8.4832 C.ar    1  UNL1        0.0000
     11 C          62.0901   86.5726    9.0214 C.ar    1  UNL1        0.0000
     12 C          62.4701   87.4639   10.1666 C.ar    1  UNL1        0.0000
     13 O          62.7894   89.9041   15.0385 O.2     1  UNL1       -0.2865
     14 C          63.5253   90.0027   13.7351 C.2     1  UNL1        0.1971
     15 C          64.6412   90.9926   13.5768 C.ar    1  UNL1        0.0581
     16 C          65.7418   91.0510   14.5942 C.ar    1  UNL1        0.0063
     17 C          66.8576   92.0409   14.4360 C.ar    1  UNL1        0.0208
     18 C          66.8728   92.9723   13.2603 C.ar    1  UNL1        0.0989
     19 N          65.7722   92.9139   12.2429 N.ar    1  UNL1       -0.2422
     20 C          64.6564   91.9240   12.4012 C.ar    1  UNL1        0.1020
@<TRIPOS>BOND
     1    13    14    2
     2    14     1    1
     3     1     2    2
     4     2     3    1
     5     3     4   ar
     6     4     5   ar
     7     5     6   ar
     8     6     7   ar
     9     7     8   ar
    10     8     9   ar
    11     9    10   ar
    12    10    11   ar
    13    11    12   ar
    14    14    15    1
    15    15    16   ar
    16    16    17   ar
    17    17    18   ar
    18    18    19   ar
    19    19    20   ar
    20    12     3   ar
    21    20    15   ar
    22    11     6   ar
@<TRIPOS>MOLECULE
*****
 20 22 0 0 0
SMALL
GASTEIGER

@<TRIPOS>ATOM
      1 C          63.8204   89.2155   15.3937 C.2     1  UNL1        0.0421
      2 C          64.2915   88.3486   14.2639 C.2     1  UNL1        0.0033
      3 C          64.0088   86.8755   14.2805 C.ar    1  UNL1        0.0001
      4 C          64.1460   86.0999   15.5571 C.ar    1  UNL1        0.0000
      5 C          63.8634   84.6269   15.5738 C.ar    1  UNL1        0.0000
      6 C          63.4435   83.9294   14.3138 C.ar    1  UNL1        0.0000
      7 C          63.1609   82.4564   14.3305 C.ar    1  UNL1        0.0000
      8 C          62.7410   81.7590   13.0707 C.ar    1  UNL1        0.0000
      9 C          62.6039   82.5346   11.7941 C.ar    1  UNL1        0.0000
     10 C          62.8865   84.0076   11.7774 C.ar    1  UNL1        0.0000
     11 C          63.3063   84.7050   13.0373 C.ar    1  UNL1        0.0000
     12 C          63.5890   86.1781   13.0206 C.ar    1  UNL1        0.0000
     13 O          63.4720   91.5849   16.4007 O.2     1  UNL1       -0.2865
     14 C          64.1031   90.6885   15.3770 C.2     1  UNL1        0.1971
     15 C          65.0170   91.2651   14.3366 C.ar    1  UNL1        0.0581
     16 C          66.4819   91.4123   14.6236 C.ar    1  UNL1        0.0063
     17 C          67.3957   91.9889   13.5832 C.ar    1  UNL1        0.0208
     18 C          66.8447   92.4182   12.2558 C.ar    1  UNL1        0.0989
     19 N          65.3798   92.2709   11.9688 N.ar    1  UNL1       -0.2422
     20 C          64.4660   91.6944   13.0092 C.ar    1  UNL1        0.1020
@<TRIPOS>BOND
     1    13    14    2
     2    14     1    1
     3     1     2    2
     4     2     3    1
     5     3     4   ar
     6     4     5   ar
     7     5     6   ar
     8     6     7   ar
     9     7     8   ar
    10     8     9   ar
    11     9    10   ar
    12    10    11   ar
    13    11    12   ar
    14    14    15    1
    15    15    16   ar
    16    16    17   ar
    17    17    18   ar
    18    18    19   ar
    19    19    20   ar
    20    12     3   ar
    21    20    15   ar
    22    11     6   ar
@<TRIPOS>MOLECULE
*****
 20 22 0 0 0
SMALL
GASTEIGER

@<TRIPOS>ATOM
      1 C          63.9542   90.2327   14.3700 C.2     1  UNL1        0.0421
      2 C          63.2807   90.6072   13.0831 C.2     1  UNL1        0.0033
      3 C          62.7526   89.5373   12.1739 C.ar    1  UNL1        0.0001
      4 C          63.1628   88.1091   12.3789 C.ar    1  UNL1        0.0000
      5 C          62.6347   87.0393   11.4698 C.ar    1  UNL1        0.0000
      6 C          61.6965   87.3976   10.3556 C.ar    1  UNL1        0.0000
      7 C          61.1684   86.3278    9.4465 C.ar    1  UNL1        0.0000
      8 C          60.2302   86.6861    8.3324 C.ar    1  UNL1        0.0000
      9 C          59.8200   88.1143    8.1274 C.ar    1  UNL1        0.0000
     10 C          60.3481   89.1842    9.0365 C.ar    1  UNL1        0.0000
     11 C          61.2863   88.8258   10.1506 C.ar    1  UNL1        0.0000
     12 C          61.8144   89.8957   11.0598 C.ar    1  UNL1        0.0000
     13 O          63.6051   91.8743   16.3532 O.2     1  UNL1       -0.2865
     14 C          64.4822   91.3026   15.2791 C.2     1  UNL1        0.1971
     15 C          65.8875   91.8007   15.1142 C.ar    1  UNL1        0.0581
     16 C          66.5534   92.5502   16.2299 C.ar    1  UNL1        0.0063
     17 C          67.9586   93.0483   16.0649 C.ar    1  UNL1        0.0208
     18 C          68.6979   92.7969   14.7842 C.ar    1  UNL1        0.0989
     19 N          68.0320   92.0474   13.6685 N.ar    1  UNL1       -0.2422
     20 C          66.6268   91.5493   13.8335 C.ar    1  UNL1        0.1020
@<TRIPOS>BOND
     1    13    14    2
     2    14     1    1
     3     1     2    2
     4     2     3    1
     5     3     4   ar
     6     4     5   ar
     7     5     6   ar
     8     6     7   ar
     9     7     8   ar
    10     8     9   ar
    11     9    10   ar
    12    10    11   ar
    13    11    12   ar
    14    14    15    1
    15    15    16   ar
    16    16    17   ar
    17    17    18   ar
    18    18    19   ar
    19    19    20   ar
    20    12     3   ar
    21    20    15   ar
    22    11     6   ar
@<TRIPOS>MOLECULE
*****
 20 22 0 0 0
SMALL
GASTEIGER

@<TRIPOS>ATOM
      1 C          62.4836   88.2804   11.5807 C.2     1  UNL1        0.0421
      2 C          62.3082   87.2786   10.4782 C.2     1  UNL1        0.0033
      3 C          62.5758   85.8253   10.7357 C.ar    1  UNL1        0.0001
      4 C          63.0263   84.9356    9.6152 C.ar    1  UNL1        0.0000
      5 C          63.2939   83.4823    9.8727 C.ar    1  UNL1        0.0000
      6 C          63.1111   82.9187   11.2508 C.ar    1  UNL1        0.0000
      7 C          63.3787   81.4654   11.5083 C.ar    1  UNL1        0.0000
      8 C          63.1958   80.9019   12.8863 C.ar    1  UNL1        0.0000
      9 C          62.7454   81.7916   14.0068 C.ar    1  UNL1        0.0000
     10 C          62.4777   83.2448   13.7493 C.ar    1  UNL1        0.0000
     11 C          62.6606   83.8084   12.3713 C.ar    1  UNL1        0.0000
     12 C          62.3930   85.2617   12.1137 C.ar    1  UNL1        0.0000
     13 O          60.8797   90.1687   10.7984 O.2     1  UNL1       -0.2865
     14 C          62.2159   89.7337   11.3231 C.2     1  UNL1        0.1971
     15 C          63.2845   90.7519   11.5902 C.ar    1  UNL1        0.0581
     16 C          63.8659   91.5440   10.4568 C.ar    1  UNL1        0.0063
     17 C          64.9345   92.5622   10.7239 C.ar    1  UNL1        0.0208
     18 C          65.4216   92.7884   12.1244 C.ar    1  UNL1        0.0989
     19 N          64.8403   91.9964   13.2578 N.ar    1  UNL1       -0.2422
     20 C          63.7717   90.9781   12.9907 C.ar    1  UNL1        0.1020
@<TRIPOS>BOND
     1    13    14    2
     2    14     1    1
     3     1     2    2
     4     2     3    1
     5     3     4   ar
     6     4     5   ar
     7     5     6   ar
     8     6     7   ar
     9     7     8   ar
    10     8     9   ar
    11     9    10   ar
    12    10    11   ar
    13    11    12   ar
    14    14    15    1
    15    15    16   ar
    16    16    17   ar
    17    17    18   ar
    18    18    19   ar
    19    19    20   ar
    20    12     3   ar
    21    20    15   ar
    22    11     6   ar
@<TRIPOS>MOLECULE
*****
 20 22 0 0 0
SMALL
GASTEIGER

@<TRIPOS>ATOM
      1 C          63.3870   85.2887   12.8692 C.2     1  UNL1        0.0421
      2 C          62.5086   85.0377   11.6796 C.2     1  UNL1        0.0033
      3 C          61.9648   86.1925   10.8918 C.ar    1  UNL1        0.0001
      4 C          62.3703   87.5944   11.2388 C.ar    1  UNL1        0.0000
      5 C          61.8264   88.7492   10.4511 C.ar    1  UNL1        0.0000
      6 C          60.8771   88.5022    9.3163 C.ar    1  UNL1        0.0000
      7 C          60.3332   89.6571    8.5285 C.ar    1  UNL1        0.0000
      8 C          59.3839   89.4101    7.3938 C.ar    1  UNL1        0.0000
      9 C          58.9784   88.0083    7.0467 C.ar    1  UNL1        0.0000
     10 C          59.5223   86.8534    7.8344 C.ar    1  UNL1        0.0000
     11 C          60.4716   87.1004    8.9692 C.ar    1  UNL1        0.0000
     12 C          61.0155   85.9455    9.7570 C.ar    1  UNL1        0.0000
     13 O          65.1543   84.3148   14.5057 O.2     1  UNL1       -0.2865
     14 C          63.9308   84.1339   13.6570 C.2     1  UNL1        0.1971
     15 C          63.2511   82.7980   13.5960 C.ar    1  UNL1        0.0581
     16 C          63.7110   81.7669   12.6085 C.ar    1  UNL1        0.0063
     17 C          63.0313   80.4312   12.5475 C.ar    1  UNL1        0.0208
     18 C          61.8918   80.1265   13.4742 C.ar    1  UNL1        0.0989
     19 N          61.4319   81.1576   14.4617 N.ar    1  UNL1       -0.2422
     20 C          62.1116   82.4934   14.5227 C.ar    1  UNL1        0.1020
@<TRIPOS>BOND
     1    13    14    2
     2    14     1    1
     3     1     2    2
     4     2     3    1
     5     3     4   ar
     6     4     5   ar
     7     5     6   ar
     8     6     7   ar
     9     7     8   ar
    10     8     9   ar
    11     9    10   ar
    12    10    11   ar
    13    11    12   ar
    14    14    15    1
    15    15    16   ar
    16    16    17   ar
    17    17    18   ar
    18    18    19   ar
    19    19    20   ar
    20    12     3   ar
    21    20    15   ar
    22    11     6   ar
@<TRIPOS>MOLECULE
*****
 20 22 0 0 0
SMALL
GASTEIGER

@<TRIPOS>ATOM
      1 C          64.4309   86.9421   14.7190 C.2     1  UNL1        0.0421
      2 C          63.5394   88.1475   14.6726 C.2     1  UNL1        0.0033
      3 C          63.9809   89.3792   13.9390 C.ar    1  UNL1        0.0001
      4 C          63.4407   89.6712   12.5705 C.ar    1  UNL1        0.0000
      5 C          63.8821   90.9028   11.8369 C.ar    1  UNL1        0.0000
      6 C          64.8639   91.8425   12.4719 C.ar    1  UNL1        0.0000
      7 C          65.3054   93.0741   11.7383 C.ar    1  UNL1        0.0000
      8 C          66.2872   94.0138   12.3733 C.ar    1  UNL1        0.0000
      9 C          66.8274   93.7218   13.7418 C.ar    1  UNL1        0.0000
     10 C          66.3859   92.4902   14.4754 C.ar    1  UNL1        0.0000
     11 C          65.4042   91.5505   13.8404 C.ar    1  UNL1        0.0000
     12 C          64.9627   90.3188   14.5740 C.ar    1  UNL1        0.0000
     13 O          63.6987   85.7769   16.9226 O.2     1  UNL1       -0.2865
     14 C          63.9893   85.7105   15.4525 C.2     1  UNL1        0.1971
     15 C          63.8384   84.4125   14.7160 C.ar    1  UNL1        0.0581
     16 C          64.5495   84.2030   13.4120 C.ar    1  UNL1        0.0063
     17 C          64.3985   82.9050   12.6755 C.ar    1  UNL1        0.0208
     18 C          63.5365   81.8165   13.2431 C.ar    1  UNL1        0.0989
     19 N          62.8254   82.0260   14.5470 N.ar    1  UNL1       -0.2422
     20 C          62.9763   83.3240   15.2835 C.ar    1  UNL1        0.1020
@<TRIPOS>BOND
     1    13    14    2
     2    14     1    1
     3     1     2    2
     4     2     3    1
     5     3     4   ar
     6     4     5   ar
     7     5     6   ar
     8     6     7   ar
     9     7     8   ar
    10     8     9   ar
    11     9    10   ar
    12    10    11   ar
    13    11    12   ar
    14    14    15    1
    15    15    16   ar
    16    16    17   ar
    17    17    18   ar
    18    18    19   ar
    19    19    20   ar
    20    12     3   ar
    21    20    15   ar
    22    11     6   ar
@<TRIPOS>MOLECULE
*****
 20 22 0 0 0
SMALL
GASTEIGER

@<TRIPOS>ATOM
      1 C          63.0350   87.2969   11.6812 C.2     1  UNL1        0.0421
      2 C          62.5034   88.6991   11.7162 C.2     1  UNL1        0.0033
      3 C          63.3949   89.8288   12.1396 C.ar    1  UNL1        0.0001
      4 C          63.9094   89.8910   13.5472 C.ar    1  UNL1        0.0000
      5 C          64.8008   91.0206   13.9706 C.ar    1  UNL1        0.0000
      6 C          65.1777   92.0881   12.9864 C.ar    1  UNL1        0.0000
      7 C          66.0690   93.2177   13.4098 C.ar    1  UNL1        0.0000
      8 C          66.4459   94.2851   12.4256 C.ar    1  UNL1        0.0000
      9 C          65.9313   94.2229   11.0180 C.ar    1  UNL1        0.0000
     10 C          65.0399   93.0932   10.5946 C.ar    1  UNL1        0.0000
     11 C          64.6631   92.0259   11.5788 C.ar    1  UNL1        0.0000
     12 C          63.7717   90.8962   11.1554 C.ar    1  UNL1        0.0000
     13 O          60.7368   86.4462   10.8183 O.2     1  UNL1       -0.2865
     14 C          62.1436   86.1673   11.2578 C.2     1  UNL1        0.1971
     15 C          62.6589   84.7586   11.2739 C.ar    1  UNL1        0.0581
     16 C          62.5234   83.9245   12.5132 C.ar    1  UNL1        0.0063
     17 C          63.0388   82.5160   12.5293 C.ar    1  UNL1        0.0208
     18 C          63.6896   81.9415   11.3060 C.ar    1  UNL1        0.0989
     19 N          63.8251   82.7755   10.0667 N.ar    1  UNL1       -0.2422
     20 C          63.3098   84.1841   10.0507 C.ar    1  UNL1        0.1020
@<TRIPOS>BOND
     1    13    14    2
     2    14     1    1
     3     1     2    2
     4     2     3    1
     5     3     4   ar
     6     4     5   ar
     7     5     6   ar
     8     6     7   ar
     9     7     8   ar
    10     8     9   ar
    11     9    10   ar
    12    10    11   ar
    13    11    12   ar
    14    14    15    1
    15    15    16   ar
    16    16    17   ar
    17    17    18   ar
    18    18    19   ar
    19    19    20   ar
    20    12     3   ar
    21    20    15   ar
    22    11     6   ar
@<TRIPOS>MOLECULE
*****
 20 22 0 0 0
SMALL
GASTEIGER

@<TRIPOS>ATOM
      1 C          62.5224   87.9559   11.7718 C.2     1  UNL1        0.0421
      2 C          62.5458   86.6340   11.0633 C.2     1  UNL1        0.0033
      3 C          62.5646   85.3594   11.8540 C.ar    1  UNL1        0.0001
      4 C          62.4548   85.4028   13.3493 C.ar    1  UNL1        0.0000
      5 C          62.4736   84.1283   14.1400 C.ar    1  UNL1        0.0000
      6 C          62.6022   82.8103   13.4354 C.ar    1  UNL1        0.0000
      7 C          62.6210   81.5359   14.2261 C.ar    1  UNL1        0.0000
      8 C          62.7496   80.2180   13.5214 C.ar    1  UNL1        0.0000
      9 C          62.8594   80.1746   12.0261 C.ar    1  UNL1        0.0000
     10 C          62.8406   81.4491   11.2354 C.ar    1  UNL1        0.0000
     11 C          62.7120   82.7670   11.9400 C.ar    1  UNL1        0.0000
     12 C          62.6932   84.0415   11.1493 C.ar    1  UNL1        0.0000
     13 O          61.5863   89.3683    9.8023 O.2     1  UNL1       -0.2865
     14 C          62.5036   89.2304   10.9811 C.2     1  UNL1        0.1971
     15 C          63.4022   90.3671   11.3691 C.ar    1  UNL1        0.0581
     16 C          63.9408   90.4541   12.7664 C.ar    1  UNL1        0.0063
     17 C          64.8393   91.5908   13.1543 C.ar    1  UNL1        0.0208
     18 C          65.1992   92.6405   12.1451 C.ar    1  UNL1        0.0989
     19 N          64.6606   92.5535   10.7479 N.ar    1  UNL1       -0.2422
     20 C          63.7621   91.4168   10.3599 C.ar    1  UNL1        0.1020
@<TRIPOS>BOND
     1    13    14    2
     2    14     1    1
     3     1     2    2
     4     2     3    1
     5     3     4   ar
     6     4     5   ar
     7     5     6   ar
     8     6     7   ar
     9     7     8   ar
    10     8     9   ar
    11     9    10   ar
    12    10    11   ar
    13    11    12   ar
    14    14    15    1
    15    15    16   ar
    16    16    17   ar
    17    17    18   ar
    18    18    19   ar
    19    19    20   ar
    20    12     3   ar
    21    20    15   ar
    22    11     6   ar
