@<TRIPOS>MOLECULE
*****
 30 34 0 0 0
SMALL
GASTEIGER

@<TRIPOS>ATOM
      1 O          63.1345   89.5145   14.7907 O.3     1  UNL1       -0.4630
      2 C          66.7313   93.0201   13.4585 C.3     1  UNL1        0.0308
      3 C          65.5526   92.1661   13.0960 C.ar    1  UNL1       -0.0231
      4 C          64.9329   91.2673   14.1247 C.ar    1  UNL1        0.0324
      5 C          63.7542   90.4133   13.7620 C.ar    1  UNL1        0.1402
      6 C          63.1953   90.4581   12.3708 C.ar    1  UNL1        0.0479
      7 C          63.8150   91.3569   11.3421 C.ar    1  UNL1       -0.0171
      8 C          64.9937   92.2109   11.7047 C.ar    1  UNL1       -0.0292
      9 C          65.6134   93.1096   10.6760 C.3     1  UNL1        0.0304
     10 C          63.0524   91.1902   10.0612 C.3     1  UNL1        0.0606
     11 C          61.9614   90.1885   10.2983 C.ar    1  UNL1        0.0308
     12 S          60.8158   89.4664    9.6531 S.2     1  UNL1       -0.0685
     13 C          60.1961   88.5677   10.6818 C.ar    1  UNL1        0.1342
     14 N          60.9587   88.7343   11.9627 N.ar    1  UNL1       -0.2365
     15 C          62.0497   89.7360   11.7257 C.ar    1  UNL1        0.0868
     16 C          63.9342   88.3947   15.3877 C.3     1  UNL1        0.3201
     17 P          63.6526   86.9764   14.9888 P.3     1  UNL1        0.3872
     18 O          64.2300   87.4978   13.7064 O.2     1  UNL1       -0.2539
     19 O          63.1730   86.9474   16.4098 O.3     1  UNL1       -0.2916
     20 C          62.6123   85.6813   16.9865 C.3     1  UNL1        0.1543
     21 C          62.5313   84.4441   16.1422 C.3     1  UNL1        0.0672
     22 C          63.0109   84.4730   14.7213 C.3     1  UNL1        0.1488
     23 O          63.5716   85.7392   14.1445 O.3     1  UNL1       -0.2896
     24 C          62.9299   83.2359   13.8770 C.ar    1  UNL1        0.0052
     25 C          63.5733   83.2090   12.5222 C.ar    1  UNL1       -0.0011
     26 C          63.4923   81.9718   11.6779 C.ar    1  UNL1        0.0111
     27 C          62.7680   80.7616   12.1882 C.ar    1  UNL1        0.0577
     28 CL         62.6869   79.5244   11.3439 Cl      1  UNL1       -0.0822
     29 C          62.1245   80.7885   13.5430 C.ar    1  UNL1        0.0111
     30 C          62.2055   82.0256   14.3873 C.ar    1  UNL1       -0.0011
@<TRIPOS>BOND
     1     2     3    1
     2     3     4   ar
     3     4     5   ar
     4     5     1    1
     5     1    16    1
     6    17    16    1
     7    17    18    2
     8    17    19    1
     9    19    20    1
    10    20    21    1
    11    21    22    1
    12    22    24    1
    13    24    25   ar
    14    25    26   ar
    15    26    27   ar
    16    27    28    1
    17    27    29   ar
    18    29    30   ar
    19    22    23    1
    20     5     6   ar
    21     6     7   ar
    22     7     8   ar
    23     8     9    1
    24     7    10    1
    25    10    11    1
    26    11    12   ar
    27    12    13   ar
    28    13    14   ar
    29    14    15   ar
    30     8     3   ar
    31    15    11   ar
    32    23    17    1
    33    15     6    1
    34    30    24   ar
@<TRIPOS>MOLECULE
*****
 30 34 0 0 0
SMALL
GASTEIGER

@<TRIPOS>ATOM
      1 O          60.7756   88.4320   11.9941 O.3     1  UNL1       -0.4630
      2 C          59.4706   87.6106    7.0320 C.3     1  UNL1        0.0308
      3 C          60.2199   87.1967    8.2638 C.ar    1  UNL1       -0.0231
      4 C          60.1231   88.0213    9.5131 C.ar    1  UNL1        0.0324
      5 C          60.8724   87.6074   10.7449 C.ar    1  UNL1        0.1402
      6 C          61.7184   86.3689   10.7274 C.ar    1  UNL1        0.0479
      7 C          61.8152   85.5443    9.4781 C.ar    1  UNL1       -0.0171
      8 C          61.0660   85.9582    8.2463 C.ar    1  UNL1       -0.0292
      9 C          61.1627   85.1336    6.9970 C.3     1  UNL1        0.0304
     10 C          62.7211   84.3821    9.7588 C.3     1  UNL1        0.0606
     11 C          63.1842   84.4885   11.1816 C.ar    1  UNL1        0.0308
     12 S          64.0303   83.8360   12.2344 S.2     1  UNL1       -0.0685
     13 C          63.9335   84.6606   13.4836 C.ar    1  UNL1        0.1342
     14 N          63.0276   85.8227   13.2029 N.ar    1  UNL1       -0.2365
     15 C          62.5645   85.7164   11.7802 C.ar    1  UNL1        0.0868
     16 C          61.0389   89.9078   11.9409 C.3     1  UNL1        0.3201
     17 P          62.3627   90.4502   12.3920 P.3     1  UNL1        0.3872
     18 O          61.8775   89.8459   13.6763 O.2     1  UNL1       -0.2539
     19 O          62.3881   90.8661   10.9510 O.3     1  UNL1       -0.2916
     20 C          63.5688   91.6146   10.4073 C.3     1  UNL1        0.1543
     21 C          64.7241   91.9472   11.3044 C.3     1  UNL1        0.0672
     22 C          64.6986   91.5312   12.7453 C.3     1  UNL1        0.1488
     23 O          63.5179   90.7827   13.2892 O.3     1  UNL1       -0.2896
     24 C          65.8538   91.8638   13.6425 C.ar    1  UNL1        0.0052
     25 C          65.6168   92.1481   15.0962 C.ar    1  UNL1       -0.0011
     26 C          66.7720   92.4806   15.9933 C.ar    1  UNL1        0.0111
     27 C          68.1641   92.5289   15.4370 C.ar    1  UNL1        0.0577
     28 CL         69.3193   92.8614   16.3342 Cl      1  UNL1       -0.0822
     29 C          68.4011   92.2445   13.9833 C.ar    1  UNL1        0.0111
     30 C          67.2459   91.9120   13.0862 C.ar    1  UNL1       -0.0011
@<TRIPOS>BOND
     1     2     3    1
     2     3     4   ar
     3     4     5   ar
     4     5     1    1
     5     1    16    1
     6    17    16    1
     7    17    18    2
     8    17    19    1
     9    19    20    1
    10    20    21    1
    11    21    22    1
    12    22    24    1
    13    24    25   ar
    14    25    26   ar
    15    26    27   ar
    16    27    28    1
    17    27    29   ar
    18    29    30   ar
    19    22    23    1
    20     5     6   ar
    21     6     7   ar
    22     7     8   ar
    23     8     9    1
    24     7    10    1
    25    10    11    1
    26    11    12   ar
    27    12    13   ar
    28    13    14   ar
    29    14    15   ar
    30     8     3   ar
    31    15    11   ar
    32    23    17    1
    33    15     6    1
    34    30    24   ar
@<TRIPOS>MOLECULE
*****
 30 34 0 0 0
SMALL
GASTEIGER

@<TRIPOS>ATOM
      1 O          63.3122   88.5933   13.1085 O.3     1  UNL1       -0.4630
      2 C          60.5020   88.8183    8.7436 C.3     1  UNL1        0.0308
      3 C          61.2402   88.0154    9.7734 C.ar    1  UNL1       -0.0231
      4 C          61.9071   88.7058   10.9261 C.ar    1  UNL1        0.0324
      5 C          62.6453   87.9029   11.9558 C.ar    1  UNL1        0.1402
      6 C          62.7168   86.4097   11.8329 C.ar    1  UNL1        0.0479
      7 C          62.0499   85.7193   10.6802 C.ar    1  UNL1       -0.0171
      8 C          61.3117   86.5222    9.6504 C.ar    1  UNL1       -0.0292
      9 C          60.6449   85.8318    8.4977 C.3     1  UNL1        0.0304
     10 C          62.2885   84.2452   10.8219 C.3     1  UNL1        0.0606
     11 C          63.1027   84.0245   12.0622 C.ar    1  UNL1        0.0308
     12 S          63.7534   82.9771   12.9163 S.2     1  UNL1       -0.0685
     13 C          64.4202   83.6675   14.0690 C.ar    1  UNL1        0.1342
     14 N          64.1817   85.1416   13.9273 N.ar    1  UNL1       -0.2365
     15 C          63.3674   85.3623   12.6870 C.ar    1  UNL1        0.0868
     16 C          63.0780   90.0561   13.3438 C.3     1  UNL1        0.3201
     17 P          63.9916   91.0712   12.7234 P.3     1  UNL1        0.3872
     18 O          62.8542   91.1128   11.7464 O.2     1  UNL1       -0.2539
     19 O          64.8117   90.6771   13.9160 O.3     1  UNL1       -0.2916
     20 C          66.1503   91.3126   14.1487 C.3     1  UNL1        0.1543
     21 C          66.6689   92.3422   13.1890 C.3     1  UNL1        0.0672
     22 C          65.8488   92.7363   11.9964 C.3     1  UNL1        0.1488
     23 O          64.5101   92.1008   11.7637 O.3     1  UNL1       -0.2896
     24 C          66.3673   93.7658   11.0367 C.ar    1  UNL1        0.0052
     25 C          67.0760   93.3361    9.7864 C.ar    1  UNL1       -0.0011
     26 C          67.5945   94.3656    8.8267 C.ar    1  UNL1        0.0111
     27 C          67.4043   95.8249    9.1170 C.ar    1  UNL1        0.0577
     28 CL         67.9228   96.8544    8.1572 Cl      1  UNL1       -0.0822
     29 C          66.6956   96.2546   10.3672 C.ar    1  UNL1        0.0111
     30 C          66.1771   95.2251   11.3270 C.ar    1  UNL1       -0.0011
@<TRIPOS>BOND
     1     2     3    1
     2     3     4   ar
     3     4     5   ar
     4     5     1    1
     5     1    16    1
     6    17    16    1
     7    17    18    2
     8    17    19    1
     9    19    20    1
    10    20    21    1
    11    21    22    1
    12    22    24    1
    13    24    25   ar
    14    25    26   ar
    15    26    27   ar
    16    27    28    1
    17    27    29   ar
    18    29    30   ar
    19    22    23    1
    20     5     6   ar
    21     6     7   ar
    22     7     8   ar
    23     8     9    1
    24     7    10    1
    25    10    11    1
    26    11    12   ar
    27    12    13   ar
    28    13    14   ar
    29    14    15   ar
    30     8     3   ar
    31    15    11   ar
    32    23    17    1
    33    15     6    1
    34    30    24   ar
@<TRIPOS>MOLECULE
*****
 30 34 0 0 0
SMALL
GASTEIGER

@<TRIPOS>ATOM
      1 O          62.7626   89.1835   13.0509 O.3     1  UNL1       -0.4630
      2 C          64.7639   84.6206   14.5257 C.3     1  UNL1        0.0308
      3 C          63.9542   85.4322   13.5583 C.ar    1  UNL1       -0.0231
      4 C          63.7633   86.9021   13.7883 C.ar    1  UNL1        0.0324
      5 C          62.9536   87.7136   12.8209 C.ar    1  UNL1        0.1402
      6 C          62.3348   87.0553   11.6236 C.ar    1  UNL1        0.0479
      7 C          62.5258   85.5853   11.3936 C.ar    1  UNL1       -0.0171
      8 C          63.3355   84.7738   12.3609 C.ar    1  UNL1       -0.0292
      9 C          63.5264   83.3039   12.1309 C.3     1  UNL1        0.0304
     10 C          61.8004   85.2152   10.1338 C.3     1  UNL1        0.0606
     11 C          61.1611   86.4564    9.5853 C.ar    1  UNL1        0.0308
     12 S          60.3178   86.9947    8.4677 S.2     1  UNL1       -0.0685
     13 C          60.1269   88.4646    8.6977 C.ar    1  UNL1        0.1342
     14 N          60.8522   88.8347    9.9574 N.ar    1  UNL1       -0.2365
     15 C          61.4915   87.5936   10.5060 C.ar    1  UNL1        0.0868
     16 C          63.8151   89.9728   13.7716 C.3     1  UNL1        0.3201
     17 P          64.5851   91.0352   13.0448 P.3     1  UNL1        0.3872
     18 O          63.4270   90.8650   12.1067 O.2     1  UNL1       -0.2539
     19 O          65.4758   90.8364   14.2352 O.3     1  UNL1       -0.2916
     20 C          66.7342   91.6409   14.3730 C.3     1  UNL1        0.1543
     21 C          67.1021   92.6442   13.3203 C.3     1  UNL1        0.0672
     22 C          66.2114   92.8430   12.1299 C.3     1  UNL1        0.1488
     23 O          64.9529   92.0385   11.9921 O.3     1  UNL1       -0.2896
     24 C          66.5792   93.8463   11.0772 C.ar    1  UNL1        0.0052
     25 C          67.2701   93.3986    9.8232 C.ar    1  UNL1       -0.0011
     26 C          67.6379   94.4019    8.7705 C.ar    1  UNL1        0.0111
     27 C          67.3148   95.8527    8.9717 C.ar    1  UNL1        0.0577
     28 CL         67.6826   96.8560    7.9190 Cl      1  UNL1       -0.0822
     29 C          66.6239   96.3004   10.2256 C.ar    1  UNL1        0.0111
     30 C          66.2562   95.2971   11.2783 C.ar    1  UNL1       -0.0011
@<TRIPOS>BOND
     1     2     3    1
     2     3     4   ar
     3     4     5   ar
     4     5     1    1
     5     1    16    1
     6    17    16    1
     7    17    18    2
     8    17    19    1
     9    19    20    1
    10    20    21    1
    11    21    22    1
    12    22    24    1
    13    24    25   ar
    14    25    26   ar
    15    26    27   ar
    16    27    28    1
    17    27    29   ar
    18    29    30   ar
    19    22    23    1
    20     5     6   ar
    21     6     7   ar
    22     7     8   ar
    23     8     9    1
    24     7    10    1
    25    10    11    1
    26    11    12   ar
    27    12    13   ar
    28    13    14   ar
    29    14    15   ar
    30     8     3   ar
    31    15    11   ar
    32    23    17    1
    33    15     6    1
    34    30    24   ar
@<TRIPOS>MOLECULE
*****
 30 34 0 0 0
SMALL
GASTEIGER

@<TRIPOS>ATOM
      1 O          61.7519   87.3764   11.9379 O.3     1  UNL1       -0.4630
      2 C          62.9020   84.6815    7.6466 C.3     1  UNL1        0.0308
      3 C          62.9394   84.8254    9.1392 C.ar    1  UNL1       -0.0231
      4 C          62.3269   86.0290    9.7923 C.ar    1  UNL1        0.0324
      5 C          62.3644   86.1728   11.2849 C.ar    1  UNL1        0.1402
      6 C          63.0142   85.1133   12.1245 C.ar    1  UNL1        0.0479
      7 C          63.6267   83.9097   11.4714 C.ar    1  UNL1       -0.0171
      8 C          63.5893   83.7658    9.9788 C.ar    1  UNL1       -0.0292
      9 C          64.2017   82.5623    9.3258 C.3     1  UNL1        0.0304
     10 C          64.1933   83.0350   12.5503 C.3     1  UNL1        0.0606
     11 C          63.9310   83.6979   13.8700 C.ar    1  UNL1        0.0308
     12 S          64.1192   83.5670   15.3524 S.2     1  UNL1       -0.0685
     13 C          63.5067   84.7705   16.0054 C.ar    1  UNL1        0.1342
     14 N          62.9401   85.6453   14.9266 N.ar    1  UNL1       -0.2365
     15 C          63.2023   84.9824   13.6069 C.ar    1  UNL1        0.0868
     16 C          61.9173   88.7320   11.3174 C.3     1  UNL1        0.3201
     17 P          62.9517   89.6791   11.8492 P.3     1  UNL1        0.3872
     18 O          62.8451   88.7325   13.0079 O.2     1  UNL1       -0.2539
     19 O          62.6992   90.2968   10.5058 O.3     1  UNL1       -0.2916
     20 C          63.4440   91.5328   10.0967 C.3     1  UNL1        0.1543
     21 C          64.4415   92.1512   11.0309 C.3     1  UNL1        0.0672
     22 C          64.6940   91.5335   12.3743 C.3     1  UNL1        0.1488
     23 O          63.9491   90.2974   12.7835 O.3     1  UNL1       -0.2896
     24 C          65.6914   92.1519   13.3086 C.ar    1  UNL1        0.0052
     25 C          66.2812   91.3377   14.4219 C.ar    1  UNL1       -0.0011
     26 C          67.2786   91.9560   15.3561 C.ar    1  UNL1        0.0111
     27 C          67.6862   93.3884   15.1772 C.ar    1  UNL1        0.0577
     28 CL         68.6836   94.0067   16.1115 Cl      1  UNL1       -0.0822
     29 C          67.0964   94.2025   14.0639 C.ar    1  UNL1        0.0111
     30 C          66.0990   93.5842   13.1297 C.ar    1  UNL1       -0.0011
@<TRIPOS>BOND
     1     2     3    1
     2     3     4   ar
     3     4     5   ar
     4     5     1    1
     5     1    16    1
     6    17    16    1
     7    17    18    2
     8    17    19    1
     9    19    20    1
    10    20    21    1
    11    21    22    1
    12    22    24    1
    13    24    25   ar
    14    25    26   ar
    15    26    27   ar
    16    27    28    1
    17    27    29   ar
    18    29    30   ar
    19    22    23    1
    20     5     6   ar
    21     6     7   ar
    22     7     8   ar
    23     8     9    1
    24     7    10    1
    25    10    11    1
    26    11    12   ar
    27    12    13   ar
    28    13    14   ar
    29    14    15   ar
    30     8     3   ar
    31    15    11   ar
    32    23    17    1
    33    15     6    1
    34    30    24   ar
@<TRIPOS>MOLECULE
*****
 30 34 0 0 0
SMALL
GASTEIGER

@<TRIPOS>ATOM
      1 O          62.1501   88.0675   12.0621 O.3     1  UNL1       -0.4630
      2 C          62.5720   85.1617    7.7752 C.3     1  UNL1        0.0308
      3 C          62.7607   85.3308    9.2536 C.ar    1  UNL1       -0.0231
      4 C          62.3611   86.6147    9.9187 C.ar    1  UNL1        0.0324
      5 C          62.5497   86.7837   11.3971 C.ar    1  UNL1        0.1402
      6 C          63.1379   85.6692   12.2105 C.ar    1  UNL1        0.0479
      7 C          63.5375   84.3854   11.5454 C.ar    1  UNL1       -0.0171
      8 C          63.3489   84.2162   10.0670 C.ar    1  UNL1       -0.0292
      9 C          63.7485   82.9324    9.4020 C.3     1  UNL1        0.0304
     10 C          64.0875   83.4695   12.5985 C.3     1  UNL1        0.0606
     11 C          64.0279   84.1873   13.9142 C.ar    1  UNL1        0.0308
     12 S          64.3309   84.0648   15.3782 S.2     1  UNL1       -0.0685
     13 C          63.9314   85.3486   16.0432 C.ar    1  UNL1        0.1342
     14 N          63.3813   86.2645   14.9903 N.ar    1  UNL1       -0.2365
     15 C          63.4410   85.5467   13.6745 C.ar    1  UNL1        0.0868
     16 C          61.8448   89.2789   11.2319 C.3     1  UNL1        0.3201
     17 P          62.8754   90.3569   11.0708 P.3     1  UNL1        0.3872
     18 O          62.3316   90.3055    9.6737 O.2     1  UNL1       -0.2539
     19 O          63.0613   90.0340   12.5237 O.3     1  UNL1       -0.2916
     20 C          64.0888   90.7712   13.3304 C.3     1  UNL1        0.1543
     21 C          64.9305   91.8313   12.6841 C.3     1  UNL1        0.0672
     22 C          64.7446   92.1542   11.2311 C.3     1  UNL1        0.1488
     23 O          63.7170   91.4170   10.4244 O.3     1  UNL1       -0.2896
     24 C          65.5862   93.2143   10.5847 C.ar    1  UNL1        0.0052
     25 C          66.8663   92.8404    9.8978 C.ar    1  UNL1       -0.0011
     26 C          67.7079   93.9005    9.2514 C.ar    1  UNL1        0.0111
     27 C          67.2697   95.3344    9.2919 C.ar    1  UNL1        0.0577
     28 CL         68.1113   96.3946    8.6455 Cl      1  UNL1       -0.0822
     29 C          65.9896   95.7083    9.9788 C.ar    1  UNL1        0.0111
     30 C          65.1480   94.6482   10.6252 C.ar    1  UNL1       -0.0011
@<TRIPOS>BOND
     1     2     3    1
     2     3     4   ar
     3     4     5   ar
     4     5     1    1
     5     1    16    1
     6    17    16    1
     7    17    18    2
     8    17    19    1
     9    19    20    1
    10    20    21    1
    11    21    22    1
    12    22    24    1
    13    24    25   ar
    14    25    26   ar
    15    26    27   ar
    16    27    28    1
    17    27    29   ar
    18    29    30   ar
    19    22    23    1
    20     5     6   ar
    21     6     7   ar
    22     7     8   ar
    23     8     9    1
    24     7    10    1
    25    10    11    1
    26    11    12   ar
    27    12    13   ar
    28    13    14   ar
    29    14    15   ar
    30     8     3   ar
    31    15    11   ar
    32    23    17    1
    33    15     6    1
    34    30    24   ar
@<TRIPOS>MOLECULE
*****
 30 34 0 0 0
SMALL
GASTEIGER

@<TRIPOS>ATOM
      1 O          60.9680   88.1152   12.1992 O.3     1  UNL1       -0.4630
      2 C          64.2404   84.1077   12.6797 C.3     1  UNL1        0.0308
      3 C          63.2893   84.9156   11.8474 C.ar    1  UNL1       -0.0231
      4 C          62.6042   86.1115   12.4395 C.ar    1  UNL1        0.0324
      5 C          61.6531   86.9194   11.6071 C.ar    1  UNL1        0.1402
      6 C          61.3871   86.5314   10.1829 C.ar    1  UNL1        0.0479
      7 C          62.0722   85.3355    9.5908 C.ar    1  UNL1       -0.0171
      8 C          63.0233   84.5276   10.4231 C.ar    1  UNL1       -0.0292
      9 C          63.7084   83.3317    9.8310 C.3     1  UNL1        0.0304
     10 C          61.6155   85.1965    8.1688 C.3     1  UNL1        0.0606
     11 C          60.6483   86.3065    7.8819 C.ar    1  UNL1        0.0308
     12 S          59.7683   86.9066    6.8258 S.2     1  UNL1       -0.0685
     13 C          59.0832   88.1025    7.4178 C.ar    1  UNL1        0.1342
     14 N          59.5398   88.2415    8.8399 N.ar    1  UNL1       -0.2365
     15 C          60.5071   87.1315    9.1267 C.ar    1  UNL1        0.0868
     16 C          61.2555   89.4863   11.6628 C.3     1  UNL1        0.3201
     17 P          62.4774   90.2283   12.1171 P.3     1  UNL1        0.3872
     18 O          62.0531   89.6062   13.4144 O.2     1  UNL1       -0.2539
     19 O          62.4773   90.5928   10.6621 O.3     1  UNL1       -0.2916
     20 C          63.5518   91.4832   10.1119 C.3     1  UNL1        0.1543
     21 C          64.6263   92.0092   11.0168 C.3     1  UNL1        0.0672
     22 C          64.6263   91.6448   12.4718 C.3     1  UNL1        0.1488
     23 O          63.5518   90.7543   13.0220 O.3     1  UNL1       -0.2896
     24 C          65.7007   92.1708   13.3767 C.ar    1  UNL1        0.0052
     25 C          66.1136   93.6105   13.2929 C.ar    1  UNL1       -0.0011
     26 C          67.1880   94.1365   14.1978 C.ar    1  UNL1        0.0111
     27 C          67.8497   93.2230   15.1865 C.ar    1  UNL1        0.0577
     28 CL         68.9241   93.7490   16.0914 Cl      1  UNL1       -0.0822
     29 C          67.4368   91.7833   15.2704 C.ar    1  UNL1        0.0111
     30 C          66.3624   91.2573   14.3654 C.ar    1  UNL1       -0.0011
@<TRIPOS>BOND
     1     2     3    1
     2     3     4   ar
     3     4     5   ar
     4     5     1    1
     5     1    16    1
     6    17    16    1
     7    17    18    2
     8    17    19    1
     9    19    20    1
    10    20    21    1
    11    21    22    1
    12    22    24    1
    13    24    25   ar
    14    25    26   ar
    15    26    27   ar
    16    27    28    1
    17    27    29   ar
    18    29    30   ar
    19    22    23    1
    20     5     6   ar
    21     6     7   ar
    22     7     8   ar
    23     8     9    1
    24     7    10    1
    25    10    11    1
    26    11    12   ar
    27    12    13   ar
    28    13    14   ar
    29    14    15   ar
    30     8     3   ar
    31    15    11   ar
    32    23    17    1
    33    15     6    1
    34    30    24   ar
@<TRIPOS>MOLECULE
*****
 30 34 0 0 0
SMALL
GASTEIGER

@<TRIPOS>ATOM
      1 O          59.6847   92.4304    1.7660 O.3     1  UNL1       -0.4630
      2 C          64.2683   93.8406   -0.2344 C.3     1  UNL1        0.0308
      3 C          62.8024   93.5738   -0.4072 C.ar    1  UNL1       -0.0231
      4 C          61.9765   93.1355    0.7658 C.ar    1  UNL1        0.0324
      5 C          60.5105   92.8687    0.5930 C.ar    1  UNL1        0.1402
      6 C          59.8705   93.0401   -0.7526 C.ar    1  UNL1        0.0479
      7 C          60.6964   93.4784   -1.9256 C.ar    1  UNL1       -0.0171
      8 C          62.1623   93.7452   -1.7529 C.ar    1  UNL1       -0.0292
      9 C          62.9882   94.1835   -2.9259 C.3     1  UNL1        0.0304
     10 C          59.7952   93.5614   -3.1219 C.3     1  UNL1        0.0606
     11 C          58.4123   93.1745   -2.6882 C.ar    1  UNL1        0.0308
     12 S          57.0008   92.9867   -3.1595 S.2     1  UNL1       -0.0685
     13 C          56.1749   92.5484   -1.9865 C.ar    1  UNL1        0.1342
     14 N          57.0761   92.4653   -0.7903 N.ar    1  UNL1       -0.2365
     15 C          58.4589   92.8523   -1.2239 C.ar    1  UNL1        0.0868
     16 C          60.1048   92.7981    3.1583 C.3     1  UNL1        0.3201
     17 P          59.9700   91.8006    4.2704 P.3     1  UNL1        0.3872
     18 O          61.4612   91.8098    4.1080 O.2     1  UNL1       -0.2539
     19 O          58.5257   92.1379    4.0466 O.3     1  UNL1       -0.2916
     20 C          57.4645   91.4808    4.8785 C.3     1  UNL1        0.1543
     21 C          57.8476   90.4865    5.9343 C.3     1  UNL1        0.0672
     22 C          59.2919   90.1493    6.1581 C.3     1  UNL1        0.1488
     23 O          60.3532   90.8064    5.3261 O.3     1  UNL1       -0.2896
     24 C          59.6751   89.1550    7.2138 C.ar    1  UNL1        0.0052
     25 C          59.3397   87.7040    7.0346 C.ar    1  UNL1       -0.0011
     26 C          59.7229   86.7097    8.0903 C.ar    1  UNL1        0.0111
     27 C          60.4414   87.1663    9.3252 C.ar    1  UNL1        0.0577
     28 CL         60.8245   86.1720   10.3810 Cl      1  UNL1       -0.0822
     29 C          60.7767   88.6173    9.5045 C.ar    1  UNL1        0.0111
     30 C          60.3936   89.6116    8.4488 C.ar    1  UNL1       -0.0011
@<TRIPOS>BOND
     1     2     3    1
     2     3     4   ar
     3     4     5   ar
     4     5     1    1
     5     1    16    1
     6    17    16    1
     7    17    18    2
     8    17    19    1
     9    19    20    1
    10    20    21    1
    11    21    22    1
    12    22    24    1
    13    24    25   ar
    14    25    26   ar
    15    26    27   ar
    16    27    28    1
    17    27    29   ar
    18    29    30   ar
    19    22    23    1
    20     5     6   ar
    21     6     7   ar
    22     7     8   ar
    23     8     9    1
    24     7    10    1
    25    10    11    1
    26    11    12   ar
    27    12    13   ar
    28    13    14   ar
    29    14    15   ar
    30     8     3   ar
    31    15    11   ar
    32    23    17    1
    33    15     6    1
    34    30    24   ar
@<TRIPOS>MOLECULE
*****
 30 34 0 0 0
SMALL
GASTEIGER

@<TRIPOS>ATOM
      1 O          62.3223   86.5073   10.4492 O.3     1  UNL1       -0.4630
      2 C          62.8233   82.0024   12.9900 C.3     1  UNL1        0.0308
      3 C          62.9905   83.4923   12.9419 C.ar    1  UNL1       -0.0231
      4 C          62.5728   84.2549   11.7195 C.ar    1  UNL1        0.0324
      5 C          62.7401   85.7448   11.6715 C.ar    1  UNL1        0.1402
      6 C          63.3250   86.4721   12.8457 C.ar    1  UNL1        0.0479
      7 C          63.7427   85.7095   14.0680 C.ar    1  UNL1       -0.0171
      8 C          63.5755   84.2197   14.1161 C.ar    1  UNL1       -0.0292
      9 C          63.9932   83.4572   15.3384 C.3     1  UNL1        0.0304
     10 C          64.2848   86.6914   15.0641 C.3     1  UNL1        0.0606
     11 C          64.2021   88.0607   14.4574 C.ar    1  UNL1        0.0308
     12 S          64.4861   89.5138   14.6980 S.2     1  UNL1       -0.0685
     13 C          64.0684   90.2763   13.4757 C.ar    1  UNL1        0.1342
     14 N          63.5262   89.2945   12.4796 N.ar    1  UNL1       -0.2365
     15 C          63.6089   87.9252   13.0863 C.ar    1  UNL1        0.0868
     16 C          61.1107   87.3904   10.4938 C.3     1  UNL1        0.3201
     17 P          60.6822   88.1384    9.2662 P.3     1  UNL1        0.3872
     18 O          61.7474   89.0632    9.7762 O.2     1  UNL1       -0.2539
     19 O          59.7657   86.9539    9.1825 O.3     1  UNL1       -0.2916
     20 C          58.7908   86.8385    8.0484 C.3     1  UNL1        0.1543
     21 C          58.7323   87.9077    6.9980 C.3     1  UNL1        0.0672
     22 C          59.6487   89.0923    7.0817 C.3     1  UNL1        0.1488
     23 O          60.6237   89.2076    8.2158 O.3     1  UNL1       -0.2896
     24 C          59.5902   90.1615    6.0313 C.ar    1  UNL1        0.0052
     25 C          60.8489   90.6179    5.3548 C.ar    1  UNL1       -0.0011
     26 C          60.7904   91.6871    4.3044 C.ar    1  UNL1        0.0111
     27 C          59.4735   92.3000    3.9304 C.ar    1  UNL1        0.0577
     28 CL         59.4150   93.3692    2.8801 Cl      1  UNL1       -0.0822
     29 C          58.2148   91.8435    4.6069 C.ar    1  UNL1        0.0111
     30 C          58.2733   90.7743    5.6573 C.ar    1  UNL1       -0.0011
@<TRIPOS>BOND
     1     2     3    1
     2     3     4   ar
     3     4     5   ar
     4     5     1    1
     5     1    16    1
     6    17    16    1
     7    17    18    2
     8    17    19    1
     9    19    20    1
    10    20    21    1
    11    21    22    1
    12    22    24    1
    13    24    25   ar
    14    25    26   ar
    15    26    27   ar
    16    27    28    1
    17    27    29   ar
    18    29    30   ar
    19    22    23    1
    20     5     6   ar
    21     6     7   ar
    22     7     8   ar
    23     8     9    1
    24     7    10    1
    25    10    11    1
    26    11    12   ar
    27    12    13   ar
    28    13    14   ar
    29    14    15   ar
    30     8     3   ar
    31    15    11   ar
    32    23    17    1
    33    15     6    1
    34    30    24   ar
