@<TRIPOS>MOLECULE
*****
 25 26 0 0 0
SMALL
GASTEIGER

@<TRIPOS>ATOM
      1 C          65.4285   92.4318   12.6825 C.ar    1  UNL1        0.1386
      2 C          64.2450   91.6271   12.2333 C.ar    1  UNL1        0.0369
      3 C          63.8272   90.4117   13.0067 C.ar    1  UNL1        0.0031
      4 C          64.5929   90.0010   14.2294 C.ar    1  UNL1        0.0011
      5 C          65.7764   90.8057   14.6786 C.ar    1  UNL1        0.0031
      6 C          66.1942   92.0211   13.9052 C.ar    1  UNL1        0.0369
      7 C          64.1752   88.7856   15.0029 C.ar    1  UNL1        0.0136
      8 C          64.4914   87.4168   14.4773 C.ar    1  UNL1        0.0380
      9 C          64.0737   86.2014   15.2508 C.ar    1  UNL1        0.1469
     10 C          63.3396   86.3548   16.5498 C.ar    1  UNL1        0.0380
     11 C          63.0234   87.7236   17.0754 C.ar    1  UNL1        0.0145
     12 C          63.4411   88.9390   16.3020 C.ar    1  UNL1        0.0578
     13 CL         63.1248   90.3078   16.8276 Cl      1  UNL1       -0.0822
     14 O          64.3900   84.8325   14.7251 O.3     1  UNL1       -0.4045
     15 C          63.2804   83.9195   14.2947 C.3     1  UNL1        0.5753
     16 F          62.1708   83.0065   13.8642 F       1  UNL1       -0.1328
     17 F          62.9562   84.8476   13.1619 F       1  UNL1       -0.1328
     18 F          63.6046   82.9914   15.4276 F       1  UNL1       -0.1328
     19 O          65.8462   93.6472   11.9090 O.3     1  UNL1       -0.4755
     20 C          65.7402   93.6571   10.4128 C.3     1  UNL1        0.2058
     21 C          66.5737   94.6099    9.6081 C.3     1  UNL1        0.0532
     22 C          67.9941   94.2641    9.2719 C.3     1  UNL1        0.0455
     23 O          68.6093   92.1857   10.7045 O.co2   1  UNL1       -0.5492
     24 C          68.4615   92.8417    9.3636 C.2     1  UNL1        0.0505
     25 O          68.7812   92.0753    8.1144 O.co2   1  UNL1       -0.5492
@<TRIPOS>UNITY_ATOM_ATTR
23 1
charge -1
@<TRIPOS>BOND
     1    23    24   ar
     2    24    25   ar
     3    24    22    1
     4    22    21    1
     5    21    20    1
     6    20    19    1
     7    19     1    1
     8     1     2   ar
     9     2     3   ar
    10     3     4   ar
    11     4     7    1
    12     7     8   ar
    13     8     9   ar
    14     9    14    1
    15    14    15    1
    16    15    16    1
    17    15    17    1
    18    15    18    1
    19     9    10   ar
    20    10    11   ar
    21    11    12   ar
    22    12    13    1
    23     4     5   ar
    24     5     6   ar
    25     6     1   ar
    26    12     7   ar
@<TRIPOS>MOLECULE
*****
 25 26 0 0 0
SMALL
GASTEIGER

@<TRIPOS>ATOM
      1 C          60.5794   87.0346    8.6760 C.ar    1  UNL1        0.1386
      2 C          60.1822   87.4055   10.0740 C.ar    1  UNL1        0.0369
      3 C          60.9205   86.8234   11.2428 C.ar    1  UNL1        0.0031
      4 C          62.0560   85.8704   11.0135 C.ar    1  UNL1        0.0011
      5 C          62.4531   85.4996    9.6155 C.ar    1  UNL1        0.0031
      6 C          61.7148   86.0817    8.4467 C.ar    1  UNL1        0.0369
      7 C          62.7943   85.2884   12.1823 C.ar    1  UNL1        0.0136
      8 C          62.7842   83.8063   12.4131 C.ar    1  UNL1        0.0380
      9 C          63.5225   83.2242   13.5819 C.ar    1  UNL1        0.1469
     10 C          64.2709   84.1242   14.5199 C.ar    1  UNL1        0.0380
     11 C          64.2809   85.6063   14.2892 C.ar    1  UNL1        0.0145
     12 C          63.5426   86.1883   13.1204 C.ar    1  UNL1        0.0578
     13 CL         63.5526   87.6705   12.8897 Cl      1  UNL1       -0.0822
     14 O          63.5125   81.7420   13.8126 O.3     1  UNL1       -0.4045
     15 C          62.2120   80.9949   13.8324 C.3     1  UNL1        0.5753
     16 F          60.9114   80.2477   13.8522 F       1  UNL1       -0.1328
     17 F          62.7621   80.0111   12.8428 F       1  UNL1       -0.1328
     18 F          61.6618   81.9787   14.8221 F       1  UNL1       -0.1328
     19 O          59.8411   87.6167    7.5072 O.3     1  UNL1       -0.4755
     20 C          59.6985   89.1041    7.3754 C.3     1  UNL1        0.2058
     21 C          58.9309   89.6850    6.2251 C.3     1  UNL1        0.0532
     22 C          59.5253   90.7965    5.4118 C.3     1  UNL1        0.0455
     23 O          57.1566   91.8024    5.0542 O.co2   1  UNL1       -0.5492
     24 C          58.6408   91.8684    4.8471 C.2     1  UNL1        0.0505
     25 O          59.2405   93.0061    4.0751 O.co2   1  UNL1       -0.5492
@<TRIPOS>UNITY_ATOM_ATTR
23 1
charge -1
@<TRIPOS>BOND
     1    23    24   ar
     2    24    25   ar
     3    24    22    1
     4    22    21    1
     5    21    20    1
     6    20    19    1
     7    19     1    1
     8     1     2   ar
     9     2     3   ar
    10     3     4   ar
    11     4     7    1
    12     7     8   ar
    13     8     9   ar
    14     9    14    1
    15    14    15    1
    16    15    16    1
    17    15    17    1
    18    15    18    1
    19     9    10   ar
    20    10    11   ar
    21    11    12   ar
    22    12    13    1
    23     4     5   ar
    24     5     6   ar
    25     6     1   ar
    26    12     7   ar
@<TRIPOS>MOLECULE
*****
 25 26 0 0 0
SMALL
GASTEIGER

@<TRIPOS>ATOM
      1 C          64.2927   84.1678   13.1809 C.ar    1  UNL1        0.1386
      2 C          63.3639   85.1837   12.5848 C.ar    1  UNL1        0.0369
      3 C          63.2812   86.5609   13.1735 C.ar    1  UNL1        0.0031
      4 C          64.1271   86.9221   14.3583 C.ar    1  UNL1        0.0011
      5 C          65.0558   85.9062   14.9544 C.ar    1  UNL1        0.0031
      6 C          65.1386   84.5291   14.3657 C.ar    1  UNL1        0.0369
      7 C          64.0443   88.2993   14.9470 C.ar    1  UNL1        0.0136
      8 C          64.6148   89.4692   14.2015 C.ar    1  UNL1        0.0380
      9 C          64.5320   90.8463   14.7902 C.ar    1  UNL1        0.1469
     10 C          63.8788   91.0536   16.1244 C.ar    1  UNL1        0.0380
     11 C          63.3083   89.8837   16.8700 C.ar    1  UNL1        0.0145
     12 C          63.3911   88.5066   16.2813 C.ar    1  UNL1        0.0578
     13 CL         62.8205   87.3366   17.0269 Cl      1  UNL1       -0.0822
     14 O          65.1026   92.0163   14.0446 O.3     1  UNL1       -0.4045
     15 C          66.4826   91.9340   13.4626 C.3     1  UNL1        0.5753
     16 F          67.8627   91.8517   12.8806 F       1  UNL1       -0.1328
     17 F          67.0459   91.6952   14.8321 F       1  UNL1       -0.1328
     18 F          65.9192   92.1728   12.0931 F       1  UNL1       -0.1328
     19 O          64.3754   82.7906   12.5922 O.3     1  UNL1       -0.4755
     20 C          63.2306   82.2482   11.7891 C.3     1  UNL1        0.2058
     21 C          62.8478   80.8030   11.9101 C.3     1  UNL1        0.0532
     22 C          62.4441   80.2430   13.2418 C.3     1  UNL1        0.0455
     23 O          62.1611   82.1856   14.9437 O.co2   1  UNL1       -0.5492
     24 C          61.5745   81.0480   14.1615 C.2     1  UNL1        0.0505
     25 O          60.1183   80.7155   14.2989 O.co2   1  UNL1       -0.5492
@<TRIPOS>UNITY_ATOM_ATTR
23 1
charge -1
@<TRIPOS>BOND
     1    23    24   ar
     2    24    25   ar
     3    24    22    1
     4    22    21    1
     5    21    20    1
     6    20    19    1
     7    19     1    1
     8     1     2   ar
     9     2     3   ar
    10     3     4   ar
    11     4     7    1
    12     7     8   ar
    13     8     9   ar
    14     9    14    1
    15    14    15    1
    16    15    16    1
    17    15    17    1
    18    15    18    1
    19     9    10   ar
    20    10    11   ar
    21    11    12   ar
    22    12    13    1
    23     4     5   ar
    24     5     6   ar
    25     6     1   ar
    26    12     7   ar
@<TRIPOS>MOLECULE
*****
 25 26 0 0 0
SMALL
GASTEIGER

@<TRIPOS>ATOM
      1 C          64.3678   91.4563   12.3654 C.ar    1  UNL1        0.1386
      2 C          63.8581   90.2110   13.0281 C.ar    1  UNL1        0.0369
      3 C          62.9657   89.2710   12.2729 C.ar    1  UNL1        0.0031
      4 C          62.5831   89.5764   10.8551 C.ar    1  UNL1        0.0011
      5 C          63.0928   90.8218   10.1924 C.ar    1  UNL1        0.0031
      6 C          63.9851   91.7617   10.9475 C.ar    1  UNL1        0.0369
      7 C          61.6908   88.6365   10.1000 C.ar    1  UNL1        0.0136
      8 C          62.2164   87.3083    9.6423 C.ar    1  UNL1        0.0380
      9 C          61.3241   86.3683    8.8872 C.ar    1  UNL1        0.1469
     10 C          59.9061   86.7565    8.5897 C.ar    1  UNL1        0.0380
     11 C          59.3804   88.0847    9.0474 C.ar    1  UNL1        0.0145
     12 C          60.2728   89.0247    9.8026 C.ar    1  UNL1        0.0578
     13 CL         59.7470   90.3530   10.2603 Cl      1  UNL1       -0.0822
     14 O          61.8498   85.0401    8.4295 O.3     1  UNL1       -0.4045
     15 C          62.3424   84.8728    7.0226 C.3     1  UNL1        0.5753
     16 F          62.8350   84.7056    5.6156 F       1  UNL1       -0.1328
     17 F          63.7085   85.3238    7.4472 F       1  UNL1       -0.1328
     18 F          60.9763   84.4218    6.5979 F       1  UNL1       -0.1328
     19 O          65.2601   92.3963   13.1205 O.3     1  UNL1       -0.4755
     20 C          66.3259   93.1636   12.3957 C.3     1  UNL1        0.2058
     21 C          67.4941   92.4396   11.7949 C.3     1  UNL1        0.0532
     22 C          67.4800   92.0691   10.3414 C.3     1  UNL1        0.0455
     23 O          68.5267   94.3313    9.6086 O.co2   1  UNL1       -0.5492
     24 C          68.2708   92.8753    9.3542 C.2     1  UNL1        0.0505
     25 O          68.8059   92.2255    8.1126 O.co2   1  UNL1       -0.5492
@<TRIPOS>UNITY_ATOM_ATTR
23 1
charge -1
@<TRIPOS>BOND
     1    23    24   ar
     2    24    25   ar
     3    24    22    1
     4    22    21    1
     5    21    20    1
     6    20    19    1
     7    19     1    1
     8     1     2   ar
     9     2     3   ar
    10     3     4   ar
    11     4     7    1
    12     7     8   ar
    13     8     9   ar
    14     9    14    1
    15    14    15    1
    16    15    16    1
    17    15    17    1
    18    15    18    1
    19     9    10   ar
    20    10    11   ar
    21    11    12   ar
    22    12    13    1
    23     4     5   ar
    24     5     6   ar
    25     6     1   ar
    26    12     7   ar
@<TRIPOS>MOLECULE
*****
 25 26 0 0 0
SMALL
GASTEIGER

@<TRIPOS>ATOM
      1 C          60.8276   88.1729    9.1447 C.ar    1  UNL1        0.1386
      2 C          61.7854   88.5787   10.2255 C.ar    1  UNL1        0.0369
      3 C          62.4618   87.5318   11.0601 C.ar    1  UNL1        0.0031
      4 C          62.1806   86.0792   10.8139 C.ar    1  UNL1        0.0011
      5 C          61.2228   85.6734    9.7331 C.ar    1  UNL1        0.0031
      6 C          60.5464   86.7202    8.8986 C.ar    1  UNL1        0.0369
      7 C          62.8570   85.0323   11.6484 C.ar    1  UNL1        0.0136
      8 C          62.7856   85.1045   13.1449 C.ar    1  UNL1        0.0380
      9 C          63.4620   84.0576   13.9795 C.ar    1  UNL1        0.1469
     10 C          64.2099   82.9385   13.3175 C.ar    1  UNL1        0.0380
     11 C          64.2814   82.8663   11.8210 C.ar    1  UNL1        0.0145
     12 C          63.6049   83.9132   10.9864 C.ar    1  UNL1        0.0578
     13 CL         63.6764   83.8410    9.4898 Cl      1  UNL1       -0.0822
     14 O          63.3905   84.1299   15.4761 O.3     1  UNL1       -0.4045
     15 C          63.4274   85.4616   16.1653 C.3     1  UNL1        0.5753
     16 F          63.4642   86.7934   16.8545 F       1  UNL1       -0.1328
     17 F          62.0495   85.2197   16.7064 F       1  UNL1       -0.1328
     18 F          64.8053   85.7035   15.6242 F       1  UNL1       -0.1328
     19 O          60.1512   89.2198    8.3102 O.3     1  UNL1       -0.4755
     20 C          59.3851   88.8216    7.0836 C.3     1  UNL1        0.2058
     21 C          58.6477   89.8592    6.2902 C.3     1  UNL1        0.0532
     22 C          59.4052   90.8091    5.4104 C.3     1  UNL1        0.0455
     23 O          59.4713   92.9670    3.9650 O.co2   1  UNL1       -0.5492
     24 C          58.6979   91.9696    4.7757 C.2     1  UNL1        0.0505
     25 O          57.2173   92.1328    4.9516 O.co2   1  UNL1       -0.5492
@<TRIPOS>UNITY_ATOM_ATTR
23 1
charge -1
@<TRIPOS>BOND
     1    23    24   ar
     2    24    25   ar
     3    24    22    1
     4    22    21    1
     5    21    20    1
     6    20    19    1
     7    19     1    1
     8     1     2   ar
     9     2     3   ar
    10     3     4   ar
    11     4     7    1
    12     7     8   ar
    13     8     9   ar
    14     9    14    1
    15    14    15    1
    16    15    16    1
    17    15    17    1
    18    15    18    1
    19     9    10   ar
    20    10    11   ar
    21    11    12   ar
    22    12    13    1
    23     4     5   ar
    24     5     6   ar
    25     6     1   ar
    26    12     7   ar
@<TRIPOS>MOLECULE
*****
 25 26 0 0 0
SMALL
GASTEIGER

@<TRIPOS>ATOM
      1 C          64.4468   91.6361   12.2938 C.ar    1  UNL1        0.1386
      2 C          63.8840   90.4494   13.0183 C.ar    1  UNL1        0.0369
      3 C          62.9839   89.4890   12.2990 C.ar    1  UNL1        0.0031
      4 C          62.6464   89.7155   10.8551 C.ar    1  UNL1        0.0011
      5 C          63.2091   90.9022   10.1306 C.ar    1  UNL1        0.0031
      6 C          64.1093   91.8625   10.8499 C.ar    1  UNL1        0.0369
      7 C          61.7462   88.7551   10.1358 C.ar    1  UNL1        0.0136
      8 C          62.2707   87.4197    9.6982 C.ar    1  UNL1        0.0380
      9 C          61.3705   86.4594    8.9789 C.ar    1  UNL1        0.1469
     10 C          59.9458   86.8345    8.6971 C.ar    1  UNL1        0.0380
     11 C          59.4213   88.1699    9.1347 C.ar    1  UNL1        0.0145
     12 C          60.3215   89.1302    9.8540 C.ar    1  UNL1        0.0578
     13 CL         59.7969   90.4657   10.2916 Cl      1  UNL1       -0.0822
     14 O          61.8951   85.1239    8.5413 O.3     1  UNL1       -0.4045
     15 C          62.4053   84.9401    7.1428 C.3     1  UNL1        0.5753
     16 F          62.9154   84.7563    5.7442 F       1  UNL1       -0.1328
     17 F          61.0422   84.4931    6.7043 F       1  UNL1       -0.1328
     18 F          63.7683   85.3872    7.5813 F       1  UNL1       -0.1328
     19 O          65.3470   92.5964   13.0131 O.3     1  UNL1       -0.4755
     20 C          66.6787   92.1350   13.5265 C.3     1  UNL1        0.2058
     21 C          66.7866   91.5315   14.8954 C.3     1  UNL1        0.0532
     22 C          67.6791   92.1605   15.9241 C.3     1  UNL1        0.0455
     23 O          68.7466   94.5165   16.1686 O.co2   1  UNL1       -0.5492
     24 C          68.7074   93.1702   15.5082 C.2     1  UNL1        0.0505
     25 O          69.6966   92.8338   14.4319 O.co2   1  UNL1       -0.5492
@<TRIPOS>UNITY_ATOM_ATTR
23 1
charge -1
@<TRIPOS>BOND
     1    23    24   ar
     2    24    25   ar
     3    24    22    1
     4    22    21    1
     5    21    20    1
     6    20    19    1
     7    19     1    1
     8     1     2   ar
     9     2     3   ar
    10     3     4   ar
    11     4     7    1
    12     7     8   ar
    13     8     9   ar
    14     9    14    1
    15    14    15    1
    16    15    16    1
    17    15    17    1
    18    15    18    1
    19     9    10   ar
    20    10    11   ar
    21    11    12   ar
    22    12    13    1
    23     4     5   ar
    24     5     6   ar
    25     6     1   ar
    26    12     7   ar
@<TRIPOS>MOLECULE
*****
 25 26 0 0 0
SMALL
GASTEIGER

@<TRIPOS>ATOM
      1 C          64.4678   91.8022   12.3884 C.ar    1  UNL1        0.1386
      2 C          64.1482   91.9192   10.9276 C.ar    1  UNL1        0.0369
      3 C          63.3403   90.8532   10.2488 C.ar    1  UNL1        0.0031
      4 C          62.8519   89.6701   11.0309 C.ar    1  UNL1        0.0011
      5 C          63.1715   89.5530   12.4918 C.ar    1  UNL1        0.0031
      6 C          63.9794   90.6191   13.1705 C.ar    1  UNL1        0.0369
      7 C          62.0439   88.6040   10.3522 C.ar    1  UNL1        0.0136
      8 C          62.6379   87.2463   10.1201 C.ar    1  UNL1        0.0380
      9 C          61.8299   86.1803    9.4413 C.ar    1  UNL1        0.1469
     10 C          60.4280   86.4719    8.9947 C.ar    1  UNL1        0.0380
     11 C          59.8340   87.8295    9.2267 C.ar    1  UNL1        0.0145
     12 C          60.6420   88.8956    9.9055 C.ar    1  UNL1        0.0578
     13 CL         60.0480   90.2533   10.1376 Cl      1  UNL1       -0.0822
     14 O          62.4239   84.8225    9.2093 O.3     1  UNL1       -0.4045
     15 C          63.1551   84.1244   10.3174 C.3     1  UNL1        0.5753
     16 F          63.8863   83.4263   11.4256 F       1  UNL1       -0.1328
     17 F          62.0187   84.4172   11.2516 F       1  UNL1       -0.1328
     18 F          64.2915   83.8316    9.3831 F       1  UNL1       -0.1328
     19 O          65.2758   92.8683   13.0672 O.3     1  UNL1       -0.4755
     20 C          66.7688   92.8830   12.9242 C.3     1  UNL1        0.2058
     21 C          67.6020   91.8707   13.6530 C.3     1  UNL1        0.0532
     22 C          68.4648   92.2978   14.8035 C.3     1  UNL1        0.0455
     23 O          68.6415   94.4691   16.2192 O.co2   1  UNL1       -0.5492
     24 C          67.9112   93.2096   15.8580 C.2     1  UNL1        0.0505
     25 O          66.6274   92.8620   16.5515 O.co2   1  UNL1       -0.5492
@<TRIPOS>UNITY_ATOM_ATTR
23 1
charge -1
@<TRIPOS>BOND
     1    23    24   ar
     2    24    25   ar
     3    24    22    1
     4    22    21    1
     5    21    20    1
     6    20    19    1
     7    19     1    1
     8     1     2   ar
     9     2     3   ar
    10     3     4   ar
    11     4     7    1
    12     7     8   ar
    13     8     9   ar
    14     9    14    1
    15    14    15    1
    16    15    16    1
    17    15    17    1
    18    15    18    1
    19     9    10   ar
    20    10    11   ar
    21    11    12   ar
    22    12    13    1
    23     4     5   ar
    24     5     6   ar
    25     6     1   ar
    26    12     7   ar
@<TRIPOS>MOLECULE
*****
 25 26 0 0 0
SMALL
GASTEIGER

@<TRIPOS>ATOM
      1 C          60.5789   88.8129    9.5900 C.ar    1  UNL1        0.1386
      2 C          61.9563   88.2255    9.6786 C.ar    1  UNL1        0.0369
      3 C          63.0400   88.9616   10.4091 C.ar    1  UNL1        0.0031
      4 C          62.7464   90.2852   11.0510 C.ar    1  UNL1        0.0011
      5 C          61.3690   90.8725   10.9624 C.ar    1  UNL1        0.0031
      6 C          60.2853   90.1364   10.2319 C.ar    1  UNL1        0.0369
      7 C          63.8301   91.0213   11.7815 C.ar    1  UNL1        0.0136
      8 C          64.7534   91.9348   11.0312 C.ar    1  UNL1        0.0380
      9 C          65.8371   92.6710   11.7618 C.ar    1  UNL1        0.1469
     10 C          65.9975   92.4936   13.2425 C.ar    1  UNL1        0.0380
     11 C          65.0742   91.5801   13.9928 C.ar    1  UNL1        0.0145
     12 C          63.9905   90.8440   13.2623 C.ar    1  UNL1        0.0578
     13 CL         63.0671   89.9304   14.0127 Cl      1  UNL1       -0.0822
     14 O          66.7605   93.5845   11.0114 O.3     1  UNL1       -0.4045
     15 C          67.5131   93.0751    9.8181 C.3     1  UNL1        0.5753
     16 F          68.2657   92.5658    8.6246 F       1  UNL1       -0.1328
     17 F          66.9019   94.1529    8.9726 F       1  UNL1       -0.1328
     18 F          68.1242   91.9974   10.6635 F       1  UNL1       -0.1328
     19 O          59.4952   88.0767    8.8595 O.3     1  UNL1       -0.4755
     20 C          59.2162   88.3886    7.4191 C.3     1  UNL1        0.2058
     21 C          58.8305   89.7805    7.0142 C.3     1  UNL1        0.0532
     22 C          59.1166   90.2634    5.6231 C.3     1  UNL1        0.0455
     23 O          56.8911   91.4857    5.0726 O.co2   1  UNL1       -0.5492
     24 C          58.3909   91.4585    5.0800 C.2     1  UNL1        0.0505
     25 O          59.1648   92.6264    4.5442 O.co2   1  UNL1       -0.5492
@<TRIPOS>UNITY_ATOM_ATTR
23 1
charge -1
@<TRIPOS>BOND
     1    23    24   ar
     2    24    25   ar
     3    24    22    1
     4    22    21    1
     5    21    20    1
     6    20    19    1
     7    19     1    1
     8     1     2   ar
     9     2     3   ar
    10     3     4   ar
    11     4     7    1
    12     7     8   ar
    13     8     9   ar
    14     9    14    1
    15    14    15    1
    16    15    16    1
    17    15    17    1
    18    15    18    1
    19     9    10   ar
    20    10    11   ar
    21    11    12   ar
    22    12    13    1
    23     4     5   ar
    24     5     6   ar
    25     6     1   ar
    26    12     7   ar
@<TRIPOS>MOLECULE
*****
 25 26 0 0 0
SMALL
GASTEIGER

@<TRIPOS>ATOM
      1 C          63.8390   90.8279   12.3441 C.ar    1  UNL1        0.1386
      2 C          63.4944   91.4160   11.0080 C.ar    1  UNL1        0.0369
      3 C          62.6261   90.6514   10.0534 C.ar    1  UNL1        0.0031
      4 C          62.1023   89.2986   10.4348 C.ar    1  UNL1        0.0011
      5 C          62.4469   88.7105   11.7710 C.ar    1  UNL1        0.0031
      6 C          63.3152   89.4751   12.7256 C.ar    1  UNL1        0.0369
      7 C          61.2340   88.5340    9.4802 C.ar    1  UNL1        0.0136
      8 C          60.2585   89.2634    8.6048 C.ar    1  UNL1        0.0380
      9 C          59.3902   88.4987    7.6502 C.ar    1  UNL1        0.1469
     10 C          59.4974   87.0047    7.5709 C.ar    1  UNL1        0.0380
     11 C          60.4729   86.2753    8.4463 C.ar    1  UNL1        0.0145
     12 C          61.3412   87.0399    9.4009 C.ar    1  UNL1        0.0578
     13 CL         62.3168   86.3105   10.2763 Cl      1  UNL1       -0.0822
     14 O          58.4146   89.2282    6.7748 O.3     1  UNL1       -0.4045
     15 C          58.9068   90.2471    5.7902 C.3     1  UNL1        0.5753
     16 F          59.3990   91.2661    4.8056 F       1  UNL1       -0.1328
     17 F          60.2852   89.6616    5.8734 F       1  UNL1       -0.1328
     18 F          57.5283   90.8326    5.7071 F       1  UNL1       -0.1328
     19 O          64.7073   91.5925   13.2988 O.3     1  UNL1       -0.4755
     20 C          65.5574   92.7227   12.7988 C.3     1  UNL1        0.2058
     21 C          66.8853   92.4376   12.1621 C.3     1  UNL1        0.0532
     22 C          67.0214   92.4613   10.6684 C.3     1  UNL1        0.0455
     23 O          68.7644   93.9723    9.4730 O.co2   1  UNL1       -0.5492
     24 C          67.3670   93.7414    9.9671 C.2     1  UNL1        0.0505
     25 O          66.3152   94.7906    9.7598 O.co2   1  UNL1       -0.5492
@<TRIPOS>UNITY_ATOM_ATTR
23 1
charge -1
@<TRIPOS>BOND
     1    23    24   ar
     2    24    25   ar
     3    24    22    1
     4    22    21    1
     5    21    20    1
     6    20    19    1
     7    19     1    1
     8     1     2   ar
     9     2     3   ar
    10     3     4   ar
    11     4     7    1
    12     7     8   ar
    13     8     9   ar
    14     9    14    1
    15    14    15    1
    16    15    16    1
    17    15    17    1
    18    15    18    1
    19     9    10   ar
    20    10    11   ar
    21    11    12   ar
    22    12    13    1
    23     4     5   ar
    24     5     6   ar
    25     6     1   ar
    26    12     7   ar
