@<TRIPOS>MOLECULE
*****
 50 55 0 0 0
SMALL
GASTEIGER

@<TRIPOS>ATOM
      1 C          59.7953   90.0807    6.4898 C.2     1  UNL1        0.0332
      2 C          58.3066   90.2094    6.3595 C.2     1  UNL1        0.0101
      3 C          57.7182   90.9987    5.2277 C.2     1  UNL1        0.0255
      4 C          56.2294   91.1275    5.0975 C.3     1  UNL1        0.0351
      5 C          58.6186   91.6592    4.2262 C.2     1  UNL1        0.2278
      6 N          58.3299   92.4950    3.0146 N.2     1  UNL1       -0.0345
      7 C          59.6403   92.8828    2.3961 C.2     1  UNL1        0.3649
      8 N          60.7388   92.2866    3.2254 N.2     1  UNL1       -0.0380
      9 C          60.1074   91.5304    4.3565 C.2     1  UNL1        0.2184
     10 C          60.6958   90.7411    5.4883 C.3     1  UNL1        0.1186
     11 C          59.8205   93.7198    1.1645 C.3     1  UNL1        0.2250
     12 C          61.0262   94.6014    1.0266 C.2     1  UNL1        0.0436
     13 C          61.2063   95.4384   -0.2051 C.2     1  UNL1        0.0288
     14 C          60.1808   95.3938   -1.2989 C.2     1  UNL1        0.0896
     15 N          58.9751   94.5122   -1.1610 N.am    1  UNL1       -0.1770
     16 C          58.7949   93.6752    0.0707 C.2     1  UNL1        0.2627
     17 O          57.5892   92.7936    0.2086 O.2     1  UNL1       -0.2719
     18 N          62.0517   94.6461    2.1202 N.pl3   1  UNL1       -0.3329
     19 H          61.8125   94.3598    3.0313 H       1  UNL1        0.1466
     20 C          63.4417   95.1268    1.8259 C.3     1  UNL1        0.1211
     21 C          64.3509   94.3073    0.9588 C.3     1  UNL1        0.1522
     22 O          65.1566   93.1935    1.5589 O.3     1  UNL1       -0.3783
     23 H          64.9739   93.1382    2.5099 H       1  UNL1        0.2109
     24 C          64.4543   94.6017   -0.5084 C.ar    1  UNL1        0.0067
     25 C          65.1021   95.8716   -0.9748 C.ar    1  UNL1       -0.0018
     26 C          65.2055   96.1659   -2.4420 C.ar    1  UNL1        0.0006
     27 C          64.6610   95.1903   -3.4429 C.ar    1  UNL1        0.0114
     28 C          64.0132   93.9204   -2.9765 C.ar    1  UNL1        0.0574
     29 CL         63.4688   92.9447   -3.9773 Cl      1  UNL1       -0.0823
     30 C          63.9098   93.6260   -1.5093 C.ar    1  UNL1        0.0095
     31 C          61.5605   87.7128    9.8850 C.3     1  UNL1        0.0610
     32 C          61.7491   89.1998    9.8301 C.3     1  UNL1        0.0374
     33 C          61.1607   89.9891    8.6983 C.3     1  UNL1        0.0919
     34 N          60.3837   89.2914    7.6216 N.pl3   1  UNL1       -0.3103
     35 C          60.1951   87.8043    7.6765 C.3     1  UNL1        0.0919
     36 C          60.7835   87.0150    8.8082 C.3     1  UNL1        0.0374
     37 C          63.9140   84.5555   14.4119 C.2     1  UNL1        0.2559
     38 O          64.6098   85.2623   15.5371 O.2     1  UNL1       -0.2721
     39 N          63.3256   85.3448   13.2801 N.am    1  UNL1       -0.2746
     40 C          62.6299   84.6380   12.1549 C.3     1  UNL1        0.1108
     41 C          62.0414   85.4273   11.0231 C.3     1  UNL1        0.0939
     42 N          62.1489   86.9234   11.0167 N.3     1  UNL1       -0.2710
     43 C          62.8447   87.6303   12.1420 C.3     1  UNL1        0.0939
     44 C          63.4331   86.8409   13.2737 C.3     1  UNL1        0.1108
     45 C          63.8066   83.0594   14.4184 C.3     1  UNL1        0.2272
     46 O          62.5828   82.3978   14.9791 O.3     1  UNL1       -0.3417
     47 C          61.6881   81.5933   14.0834 C.3     1  UNL1        0.1748
     48 C          62.0964   80.2138   13.6587 C.3     1  UNL1        0.1742
     49 C          63.0226   81.1374   11.4139 C.3     1  UNL1        0.1742
     50 O          62.6039   79.9770   12.2672 O.3     1  UNL1       -0.3484
@<TRIPOS>BOND
     1    49    50    1
     2    50    48    1
     3    48    47    1
     4    47    46    1
     5    46    45    1
     6    45    37    1
     7    37    38    2
     8    37    39   am
     9    39    40    1
    10    40    41    1
    11    41    42    1
    12    42    31    1
    13    31    32    1
    14    32    33    1
    15    33    34    1
    16    34     1    1
    17     1     2    2
    18     2     3    1
    19     3     4    1
    20     3     5    2
    21     5     6    1
    22     6     7    2
    23     7    11    1
    24    11    12    1
    25    12    18    1
    26    18    20    1
    27    20    21    1
    28    21    22    1
    29    21    24    1
    30    24    25   ar
    31    25    26   ar
    32    26    27   ar
    33    27    28   ar
    34    28    29    1
    35    28    30   ar
    36    12    13    2
    37    13    14    1
    38    14    15    2
    39    15    16    1
    40    16    17    2
    41     7     8    1
    42     8     9    2
    43     9    10    1
    44    34    35    1
    45    35    36    1
    46    42    43    1
    47    43    44    1
    48    44    39    1
    49    36    31    1
    50    10     1    1
    51     9     5    1
    52    16    11    1
    53    30    24   ar
    54    18    19    1
    55    22    23    1
@<TRIPOS>MOLECULE
*****
 50 55 0 0 0
SMALL
GASTEIGER

@<TRIPOS>ATOM
      1 C          59.7773   90.1768    6.3841 C.2     1  UNL1        0.0332
      2 C          58.2917   90.3131    6.2289 C.2     1  UNL1        0.0101
      3 C          57.7265   91.1167    5.0953 C.2     1  UNL1        0.0255
      4 C          56.2407   91.2529    4.9402 C.3     1  UNL1        0.0351
      5 C          58.6471   91.7839    4.1170 C.2     1  UNL1        0.2278
      6 N          58.3832   92.6337    2.9094 N.2     1  UNL1       -0.0345
      7 C          59.7058   93.0225    2.3183 C.2     1  UNL1        0.3649
      8 N          60.7871   92.4131    3.1605 N.2     1  UNL1       -0.0380
      9 C          60.1328   91.6476    4.2722 C.2     1  UNL1        0.2184
     10 C          60.6979   90.8440    5.4057 C.3     1  UNL1        0.1186
     11 C          59.9111   93.8717    1.0990 C.3     1  UNL1        0.2250
     12 C          59.3643   93.4273   -0.2253 C.2     1  UNL1        0.0436
     13 C          59.5696   94.2766   -1.4445 C.2     1  UNL1        0.0288
     14 C          60.3217   95.5702   -1.3397 C.2     1  UNL1        0.0896
     15 N          60.8684   96.0146   -0.0154 N.am    1  UNL1       -0.1770
     16 C          60.6631   95.1653    1.2038 C.2     1  UNL1        0.2627
     17 O          61.2099   95.6097    2.5281 O.2     1  UNL1       -0.2719
     18 N          58.6122   92.1338   -0.3302 N.pl3   1  UNL1       -0.3329
     19 H          59.0573   91.2858   -0.1021 H       1  UNL1        0.1466
     20 C          57.1821   92.1322   -0.7828 C.3     1  UNL1        0.1211
     21 C          56.8558   92.2938   -2.2379 C.3     1  UNL1        0.1522
     22 O          57.3436   91.2827   -3.2327 O.3     1  UNL1       -0.3783
     23 H          57.8502   90.5950   -2.7729 H       1  UNL1        0.2109
     24 C          56.0417   93.4666   -2.6982 C.ar    1  UNL1        0.0067
     25 C          55.1991   94.2261   -1.7168 C.ar    1  UNL1       -0.0018
     26 C          54.3850   95.3989   -2.1771 C.ar    1  UNL1        0.0006
     27 C          54.4134   95.8121   -3.6188 C.ar    1  UNL1        0.0114
     28 C          55.2560   95.0525   -4.6001 C.ar    1  UNL1        0.0574
     29 CL         55.2845   95.4658   -6.0418 Cl      1  UNL1       -0.0823
     30 C          56.0701   93.8798   -4.1398 C.ar    1  UNL1        0.0095
     31 C          61.4727   87.7659    9.7846 C.3     1  UNL1        0.0610
     32 C          61.6027   89.2603    9.7868 C.3     1  UNL1        0.0374
     33 C          61.0376   90.0639    8.6532 C.3     1  UNL1        0.0919
     34 N          60.3425   89.3732    7.5176 N.pl3   1  UNL1       -0.3103
     35 C          60.2125   87.8788    7.5155 C.3     1  UNL1        0.0919
     36 C          60.7776   87.0752    8.6490 C.3     1  UNL1        0.0374
     37 C          63.7333   84.5515   14.3187 C.2     1  UNL1        0.2559
     38 O          64.4274   85.2423   15.4548 O.2     1  UNL1       -0.2721
     39 N          63.1681   85.3551   13.1851 N.am    1  UNL1       -0.2746
     40 C          62.4740   84.6643   12.0490 C.3     1  UNL1        0.1108
     41 C          61.9089   85.4679   10.9154 C.3     1  UNL1        0.0939
     42 N          62.0379   86.9623   10.9181 N.3     1  UNL1       -0.2710
     43 C          62.7320   87.6531   12.0543 C.3     1  UNL1        0.0939
     44 C          63.2971   86.8495   13.1878 C.3     1  UNL1        0.1108
     45 C          63.6043   83.0571   14.3159 C.3     1  UNL1        0.2272
     46 O          62.3907   82.4080   14.9124 O.3     1  UNL1       -0.3417
     47 C          61.6960   81.2993   14.1787 C.3     1  UNL1        0.1748
     48 C          62.4972   80.1933   13.5581 C.3     1  UNL1        0.1742
     49 C          63.1183   81.1997   11.2448 C.3     1  UNL1        0.1742
     50 O          62.5728   80.0686   12.0653 O.3     1  UNL1       -0.3484
@<TRIPOS>BOND
     1    49    50    1
     2    50    48    1
     3    48    47    1
     4    47    46    1
     5    46    45    1
     6    45    37    1
     7    37    38    2
     8    37    39   am
     9    39    40    1
    10    40    41    1
    11    41    42    1
    12    42    31    1
    13    31    32    1
    14    32    33    1
    15    33    34    1
    16    34     1    1
    17     1     2    2
    18     2     3    1
    19     3     4    1
    20     3     5    2
    21     5     6    1
    22     6     7    2
    23     7    11    1
    24    11    12    1
    25    12    18    1
    26    18    20    1
    27    20    21    1
    28    21    22    1
    29    21    24    1
    30    24    25   ar
    31    25    26   ar
    32    26    27   ar
    33    27    28   ar
    34    28    29    1
    35    28    30   ar
    36    12    13    2
    37    13    14    1
    38    14    15    2
    39    15    16    1
    40    16    17    2
    41     7     8    1
    42     8     9    2
    43     9    10    1
    44    34    35    1
    45    35    36    1
    46    42    43    1
    47    43    44    1
    48    44    39    1
    49    36    31    1
    50    10     1    1
    51     9     5    1
    52    16    11    1
    53    30    24   ar
    54    18    19    1
    55    22    23    1
@<TRIPOS>MOLECULE
*****
 50 55 0 0 0
SMALL
GASTEIGER

@<TRIPOS>ATOM
      1 C          59.8593   89.9040    6.3034 C.2     1  UNL1        0.0332
      2 C          58.3906   90.1516    6.1265 C.2     1  UNL1        0.0101
      3 C          57.9153   91.1572    5.1200 C.2     1  UNL1        0.0255
      4 C          56.4465   91.4048    4.9431 C.3     1  UNL1        0.0351
      5 C          58.9090   91.9150    4.2903 C.2     1  UNL1        0.2278
      6 N          58.7398   92.9598    3.2274 N.2     1  UNL1       -0.0345
      7 C          60.1040   93.3579    2.7475 C.2     1  UNL1        0.3649
      8 N          61.1164   92.5591    3.5137 N.2     1  UNL1       -0.0380
      9 C          60.3778   91.6673    4.4673 C.2     1  UNL1        0.2184
     10 C          60.8529   90.6618    5.4738 C.3     1  UNL1        0.1186
     11 C          60.4034   94.3760    1.6874 C.3     1  UNL1        0.2250
     12 C          60.8789   93.9333    0.3353 C.2     1  UNL1        0.0436
     13 C          61.1783   94.9515   -0.7247 C.2     1  UNL1        0.0288
     14 C          61.0022   96.4123   -0.4328 C.2     1  UNL1        0.0896
     15 N          60.5267   96.8549    0.9192 N.am    1  UNL1       -0.1770
     16 C          60.2273   95.8367    1.9793 C.2     1  UNL1        0.2627
     17 O          59.7518   96.2793    3.3313 O.2     1  UNL1       -0.2719
     18 N          61.0551   92.4727    0.0434 N.pl3   1  UNL1       -0.3329
     19 H          61.9142   92.0323    0.2361 H       1  UNL1        0.1466
     20 C          59.9222   91.6829   -0.5422 C.3     1  UNL1        0.1211
     21 C          58.6509   92.3744   -0.9365 C.3     1  UNL1        0.1522
     22 O          57.6577   92.7743    0.1140 O.3     1  UNL1       -0.3783
     23 H          57.9890   92.5144    0.9878 H       1  UNL1        0.2109
     24 C          58.3728   92.6660   -2.3814 C.ar    1  UNL1        0.0067
     25 C          59.2158   93.6618   -3.1214 C.ar    1  UNL1       -0.0018
     26 C          58.9377   93.9534   -4.5662 C.ar    1  UNL1        0.0006
     27 C          57.8165   93.2491   -5.2712 C.ar    1  UNL1        0.0114
     28 C          56.9735   92.2533   -4.5312 C.ar    1  UNL1        0.0574
     29 CL         55.8524   91.5490   -5.2362 Cl      1  UNL1       -0.0823
     30 C          57.2516   91.9617   -3.0864 C.ar    1  UNL1        0.0095
     31 C          61.2848   86.8873    9.3230 C.3     1  UNL1        0.0610
     32 C          61.4564   88.3535    9.5891 C.3     1  UNL1        0.0374
     33 C          60.9811   89.3590    8.5826 C.3     1  UNL1        0.0919
     34 N          60.3345   88.8984    7.3100 N.pl3   1  UNL1       -0.3103
     35 C          60.1630   87.4322    7.0438 C.3     1  UNL1        0.0919
     36 C          60.6381   86.4266    8.0503 C.3     1  UNL1        0.0374
     37 C          63.1856   82.8649   13.3489 C.2     1  UNL1        0.2559
     38 O          63.8750   81.6139   12.8912 O.2     1  UNL1       -0.2721
     39 N          62.7104   83.8706   12.3424 N.am    1  UNL1       -0.2746
     40 C          62.0210   85.1216   12.8001 C.3     1  UNL1        0.1108
     41 C          61.5458   86.1272   11.7936 C.3     1  UNL1        0.0939
     42 N          61.7600   85.8817   10.3295 N.3     1  UNL1       -0.2710
     43 C          62.4494   84.6306    9.8718 C.3     1  UNL1        0.0939
     44 C          62.9246   83.6250   10.8783 C.3     1  UNL1        0.1108
     45 C          62.9713   83.1104   14.8131 C.3     1  UNL1        0.2272
     46 O          63.9929   83.8737   15.6029 O.3     1  UNL1       -0.3417
     47 C          63.8419   85.3540   15.7920 C.3     1  UNL1        0.1748
     48 C          64.6508   86.3030   14.9580 C.3     1  UNL1        0.1742
     49 C          64.3702   88.8667   14.6441 C.3     1  UNL1        0.1742
     50 O          63.9829   87.4635   14.2819 O.3     1  UNL1       -0.3484
@<TRIPOS>BOND
     1    49    50    1
     2    50    48    1
     3    48    47    1
     4    47    46    1
     5    46    45    1
     6    45    37    1
     7    37    38    2
     8    37    39   am
     9    39    40    1
    10    40    41    1
    11    41    42    1
    12    42    31    1
    13    31    32    1
    14    32    33    1
    15    33    34    1
    16    34     1    1
    17     1     2    2
    18     2     3    1
    19     3     4    1
    20     3     5    2
    21     5     6    1
    22     6     7    2
    23     7    11    1
    24    11    12    1
    25    12    18    1
    26    18    20    1
    27    20    21    1
    28    21    22    1
    29    21    24    1
    30    24    25   ar
    31    25    26   ar
    32    26    27   ar
    33    27    28   ar
    34    28    29    1
    35    28    30   ar
    36    12    13    2
    37    13    14    1
    38    14    15    2
    39    15    16    1
    40    16    17    2
    41     7     8    1
    42     8     9    2
    43     9    10    1
    44    34    35    1
    45    35    36    1
    46    42    43    1
    47    43    44    1
    48    44    39    1
    49    36    31    1
    50    10     1    1
    51     9     5    1
    52    16    11    1
    53    30    24   ar
    54    18    19    1
    55    22    23    1
@<TRIPOS>MOLECULE
*****
 50 55 0 0 0
SMALL
GASTEIGER

@<TRIPOS>ATOM
      1 C          59.7704   90.1993    6.3389 C.2     1  UNL1        0.0332
      2 C          58.2863   90.3607    6.1932 C.2     1  UNL1        0.0101
      3 C          57.7270   91.1571    5.0516 C.2     1  UNL1        0.0255
      4 C          56.2428   91.3185    4.9059 C.3     1  UNL1        0.0351
      5 C          58.6519   91.7920    4.0560 C.2     1  UNL1        0.2278
      6 N          58.3939   92.6278    2.8374 N.2     1  UNL1       -0.0345
      7 C          59.7187   92.9829    2.2301 C.2     1  UNL1        0.3649
      8 N          60.7954   92.3666    3.0733 N.2     1  UNL1       -0.0380
      9 C          60.1360   91.6306    4.2018 C.2     1  UNL1        0.2184
     10 C          60.6953   90.8342    5.3432 C.3     1  UNL1        0.1186
     11 C          59.9298   93.8093    0.9962 C.3     1  UNL1        0.2250
     12 C          61.1006   94.7430    0.9101 C.2     1  UNL1        0.0436
     13 C          61.3116   95.5694   -0.3239 C.2     1  UNL1        0.0288
     14 C          60.3520   95.4620   -1.4718 C.2     1  UNL1        0.0896
     15 N          59.1812   94.5283   -1.3856 N.am    1  UNL1       -0.1770
     16 C          58.9702   93.7019   -0.1517 C.2     1  UNL1        0.2627
     17 O          57.7994   92.7682   -0.0656 O.2     1  UNL1       -0.2719
     18 N          62.0603   94.8504    2.0578 N.pl3   1  UNL1       -0.3329
     19 H          61.7461   94.6973    2.9782 H       1  UNL1        0.1466
     20 C          63.4987   95.1912    1.8034 C.3     1  UNL1        0.1211
     21 C          64.3397   94.2980    0.9403 C.3     1  UNL1        0.1522
     22 O          65.0839   93.1482    1.5519 O.3     1  UNL1       -0.3783
     23 H          64.9142   93.1244    2.5066 H       1  UNL1        0.2109
     24 C          64.4365   94.5547   -0.5344 C.ar    1  UNL1        0.0067
     25 C          65.0751   95.8159   -1.0359 C.ar    1  UNL1       -0.0018
     26 C          65.1718   96.0725   -2.5106 C.ar    1  UNL1        0.0006
     27 C          64.6300   95.0679   -3.4839 C.ar    1  UNL1        0.0114
     28 C          63.9914   93.8067   -2.9824 C.ar    1  UNL1        0.0574
     29 CL         63.4496   92.8022   -3.9557 Cl      1  UNL1       -0.0823
     30 C          63.8947   93.5501   -1.5077 C.ar    1  UNL1        0.0095
     31 C          61.4484   87.8103    9.7634 C.3     1  UNL1        0.0610
     32 C          60.7115   87.1175    8.6558 C.3     1  UNL1        0.0374
     33 C          60.1521   87.9139    7.5142 C.3     1  UNL1        0.0919
     34 N          60.3297   89.4029    7.4805 N.pl3   1  UNL1       -0.3103
     35 C          61.0666   90.0956    8.5881 C.3     1  UNL1        0.0919
     36 C          61.6260   89.2993    9.7296 C.3     1  UNL1        0.0374
     37 C          63.6858   84.6250   14.3295 C.2     1  UNL1        0.2559
     38 O          63.4648   83.1426   14.3891 O.2     1  UNL1       -0.2721
     39 N          63.1264   85.4214   13.1879 N.am    1  UNL1       -0.2746
     40 C          63.3474   86.9037   13.1283 C.3     1  UNL1        0.1108
     41 C          62.7880   87.7001   11.9868 C.3     1  UNL1        0.0939
     42 N          62.0077   87.0140   10.9049 N.3     1  UNL1       -0.2710
     43 C          61.7868   85.5315   10.9646 C.3     1  UNL1        0.0939
     44 C          62.3462   84.7352   12.1061 C.3     1  UNL1        0.1108
     45 C          64.4661   85.3111   15.4113 C.3     1  UNL1        0.2272
     46 O          63.9174   85.3759   16.8058 O.3     1  UNL1       -0.3417
     47 C          62.7655   86.2848   17.1171 C.3     1  UNL1        0.1748
     48 C          62.9989   87.7551   17.3016 C.3     1  UNL1        0.1742
     49 C          63.4834   89.7380   15.6944 C.3     1  UNL1        0.1742
     50 O          62.5309   88.7255   16.2579 O.3     1  UNL1       -0.3484
@<TRIPOS>BOND
     1    49    50    1
     2    50    48    1
     3    48    47    1
     4    47    46    1
     5    46    45    1
     6    45    37    1
     7    37    38    2
     8    37    39   am
     9    39    40    1
    10    40    41    1
    11    41    42    1
    12    42    31    1
    13    31    32    1
    14    32    33    1
    15    33    34    1
    16    34     1    1
    17     1     2    2
    18     2     3    1
    19     3     4    1
    20     3     5    2
    21     5     6    1
    22     6     7    2
    23     7    11    1
    24    11    12    1
    25    12    18    1
    26    18    20    1
    27    20    21    1
    28    21    22    1
    29    21    24    1
    30    24    25   ar
    31    25    26   ar
    32    26    27   ar
    33    27    28   ar
    34    28    29    1
    35    28    30   ar
    36    12    13    2
    37    13    14    1
    38    14    15    2
    39    15    16    1
    40    16    17    2
    41     7     8    1
    42     8     9    2
    43     9    10    1
    44    34    35    1
    45    35    36    1
    46    42    43    1
    47    43    44    1
    48    44    39    1
    49    36    31    1
    50    10     1    1
    51     9     5    1
    52    16    11    1
    53    30    24   ar
    54    18    19    1
    55    22    23    1
@<TRIPOS>MOLECULE
*****
 50 55 0 0 0
SMALL
GASTEIGER

@<TRIPOS>ATOM
      1 C          60.2298   89.9870    6.8071 C.2     1  UNL1        0.0332
      2 C          59.3898   88.7751    7.0816 C.2     1  UNL1        0.0101
      3 C          59.6073   87.9799    8.3349 C.2     1  UNL1        0.0255
      4 C          58.7672   86.7679    8.6094 C.3     1  UNL1        0.0351
      5 C          60.6648   88.3968    9.3135 C.2     1  UNL1        0.2278
      6 N          61.1054   87.8146   10.6238 N.2     1  UNL1       -0.0345
      7 C          62.2177   88.6668   11.1591 C.2     1  UNL1        0.3649
      8 N          62.4646   89.7757   10.1795 N.2     1  UNL1       -0.0380
      9 C          61.5049   89.6088    9.0389 C.2     1  UNL1        0.2184
     10 C          61.2874   90.4039    7.7857 C.3     1  UNL1        0.1186
     11 C          62.9539   88.4485   12.4476 C.3     1  UNL1        0.2250
     12 C          63.4132   89.6246   13.2576 C.2     1  UNL1        0.0436
     13 C          64.1494   89.4061   14.5461 C.2     1  UNL1        0.0288
     14 C          64.4263   88.0118   15.0247 C.2     1  UNL1        0.0896
     15 N          63.9670   86.8358   14.2148 N.am    1  UNL1       -0.1770
     16 C          63.2308   87.0542   12.9262 C.2     1  UNL1        0.2627
     17 O          62.7715   85.8782   12.1163 O.2     1  UNL1       -0.2719
     18 N          63.1363   91.0189   12.7790 N.pl3   1  UNL1       -0.3329
     19 H          62.3565   91.5117   13.1231 H       1  UNL1        0.1466
     20 C          64.0474   91.6625   11.7762 C.3     1  UNL1        0.1211
     21 C          65.2600   92.4145   12.2388 C.3     1  UNL1        0.1522
     22 O          65.6073   92.4532   13.6975 O.3     1  UNL1       -0.3783
     23 H          64.9507   91.9458   14.1998 H       1  UNL1        0.2109
     24 C          66.1254   93.1278   11.2426 C.ar    1  UNL1        0.0067
     25 C          65.9446   94.5984   11.0092 C.ar    1  UNL1       -0.0018
     26 C          66.8099   95.3117   10.0130 C.ar    1  UNL1        0.0006
     27 C          67.8561   94.5544    9.2502 C.ar    1  UNL1        0.0114
     28 C          68.0369   93.0838    9.4836 C.ar    1  UNL1        0.0574
     29 CL         69.0831   92.3264    8.7207 Cl      1  UNL1       -0.0823
     30 C          67.1715   92.3705   10.4797 C.ar    1  UNL1        0.0095
     31 C          59.5772   92.3724    3.0475 C.3     1  UNL1        0.0610
     32 C          60.9611   91.9372    3.4289 C.3     1  UNL1        0.0374
     33 C          61.1786   91.1421    4.6821 C.3     1  UNL1        0.0919
     34 N          60.0123   90.7821    5.5539 N.pl3   1  UNL1       -0.3103
     35 C          58.6284   91.2173    5.1725 C.3     1  UNL1        0.0919
     36 C          58.4108   92.0124    3.9193 C.3     1  UNL1        0.0374
     37 C          58.7070   95.5529   -1.9652 C.2     1  UNL1        0.2559
     38 O          59.4246   96.8554   -2.1610 O.2     1  UNL1       -0.2721
     39 N          58.9245   94.7577   -0.7120 N.am    1  UNL1       -0.2746
     40 C          58.2070   93.4552   -0.5162 C.3     1  UNL1        0.1108
     41 C          58.4245   92.6600    0.7370 C.3     1  UNL1        0.0939
     42 N          59.3596   93.1675    1.7943 N.3     1  UNL1       -0.2710
     43 C          60.0772   94.4701    1.5985 C.3     1  UNL1        0.0939
     44 C          59.8597   95.2652    0.3453 C.3     1  UNL1        0.1108
     45 C          57.7719   95.0454   -3.0225 C.3     1  UNL1        0.2272
     46 O          58.2828   94.1397   -4.1036 O.3     1  UNL1       -0.3417
     47 C          57.9984   92.6681   -4.0457 C.3     1  UNL1        0.1748
     48 C          56.5807   92.1778   -4.0412 C.3     1  UNL1        0.1742
     49 C          56.5843   91.6612   -6.5873 C.3     1  UNL1        0.1742
     50 O          56.0528   91.3990   -5.2094 O.3     1  UNL1       -0.3484
@<TRIPOS>BOND
     1    49    50    1
     2    50    48    1
     3    48    47    1
     4    47    46    1
     5    46    45    1
     6    45    37    1
     7    37    38    2
     8    37    39   am
     9    39    40    1
    10    40    41    1
    11    41    42    1
    12    42    31    1
    13    31    32    1
    14    32    33    1
    15    33    34    1
    16    34     1    1
    17     1     2    2
    18     2     3    1
    19     3     4    1
    20     3     5    2
    21     5     6    1
    22     6     7    2
    23     7    11    1
    24    11    12    1
    25    12    18    1
    26    18    20    1
    27    20    21    1
    28    21    22    1
    29    21    24    1
    30    24    25   ar
    31    25    26   ar
    32    26    27   ar
    33    27    28   ar
    34    28    29    1
    35    28    30   ar
    36    12    13    2
    37    13    14    1
    38    14    15    2
    39    15    16    1
    40    16    17    2
    41     7     8    1
    42     8     9    2
    43     9    10    1
    44    34    35    1
    45    35    36    1
    46    42    43    1
    47    43    44    1
    48    44    39    1
    49    36    31    1
    50    10     1    1
    51     9     5    1
    52    16    11    1
    53    30    24   ar
    54    18    19    1
    55    22    23    1
@<TRIPOS>MOLECULE
*****
 50 55 0 0 0
SMALL
GASTEIGER

@<TRIPOS>ATOM
      1 C          60.3490   90.1569    6.8819 C.2     1  UNL1        0.0332
      2 C          59.5801   88.9030    7.1758 C.2     1  UNL1        0.0101
      3 C          59.8332   88.1486    8.4474 C.2     1  UNL1        0.0255
      4 C          59.0641   86.8947    8.7412 C.3     1  UNL1        0.0351
      5 C          60.8552   88.6482    9.4251 C.2     1  UNL1        0.2278
      6 N          61.3177   88.1208   10.7509 N.2     1  UNL1       -0.0345
      7 C          62.3725   89.0488   11.2764 C.2     1  UNL1        0.3649
      8 N          62.5619   90.1497   10.2754 N.2     1  UNL1       -0.0380
      9 C          61.6242   89.9021    9.1312 C.2     1  UNL1        0.2184
     10 C          61.3711   90.6565    7.8596 C.3     1  UNL1        0.1186
     11 C          63.1087   88.9017   12.5750 C.3     1  UNL1        0.2250
     12 C          63.3767   87.5361   13.1348 C.2     1  UNL1        0.0436
     13 C          64.1129   87.3891   14.4334 C.2     1  UNL1        0.0288
     14 C          64.5812   88.6076   15.1723 C.2     1  UNL1        0.0896
     15 N          64.3132   89.9732   14.6126 N.am    1  UNL1       -0.1770
     16 C          63.5770   90.1202   13.3139 C.2     1  UNL1        0.2627
     17 O          63.3090   91.4858   12.7542 O.2     1  UNL1       -0.2719
     18 N          62.9085   86.3175   12.3960 N.pl3   1  UNL1       -0.3329
     19 H          62.2309   86.4020   11.6867 H       1  UNL1        0.1466
     20 C          63.4724   84.9703   12.7378 C.3     1  UNL1        0.1211
     21 C          62.6893   84.0266   13.6016 C.3     1  UNL1        0.1522
     22 O          61.9986   84.5343   14.8325 O.3     1  UNL1       -0.3783
     23 H          62.1580   85.4868   14.9231 H       1  UNL1        0.2109
     24 C          62.5968   82.5752   13.2343 C.ar    1  UNL1        0.0067
     25 C          62.1926   81.5646   14.2665 C.ar    1  UNL1       -0.0018
     26 C          62.1001   80.1132   13.8993 C.ar    1  UNL1        0.0006
     27 C          62.4119   79.6723   12.4998 C.ar    1  UNL1        0.0114
     28 C          62.8161   80.6828   11.4677 C.ar    1  UNL1        0.0574
     29 CL         63.1279   80.2419   10.0683 Cl      1  UNL1       -0.0823
     30 C          62.9086   82.1343   11.8349 C.ar    1  UNL1        0.0095
     31 C          59.5898   92.4201    3.0672 C.3     1  UNL1        0.0610
     32 C          60.9900   92.0396    3.4475 C.3     1  UNL1        0.0374
     33 C          61.2430   91.2851    4.7191 C.3     1  UNL1        0.0919
     34 N          60.0960   90.9113    5.6103 N.pl3   1  UNL1       -0.3103
     35 C          58.6958   91.2918    5.2301 C.3     1  UNL1        0.0919
     36 C          58.4427   92.0462    3.9585 C.3     1  UNL1        0.0374
     37 C          58.5774   95.4378   -2.0189 C.2     1  UNL1        0.2559
     38 O          59.1484   96.8126   -2.2016 O.2     1  UNL1       -0.2721
     39 N          58.8305   94.6833   -0.7474 N.am    1  UNL1       -0.2746
     40 C          58.2595   93.3084   -0.5647 C.3     1  UNL1        0.1108
     41 C          58.5126   92.5539    0.7068 C.3     1  UNL1        0.0939
     42 N          59.3367   93.1745    1.7957 N.3     1  UNL1       -0.2710
     43 C          59.9077   94.5495    1.6130 C.3     1  UNL1        0.0939
     44 C          59.6546   95.3039    0.3415 C.3     1  UNL1        0.1108
     45 C          57.7533   94.8172   -3.1078 C.3     1  UNL1        0.2272
     46 O          58.3836   93.8528   -4.0684 O.3     1  UNL1       -0.3417
     47 C          57.5435   93.1740   -5.1092 C.3     1  UNL1        0.1748
     48 C          56.5404   92.1353   -4.7030 C.3     1  UNL1        0.1742
     49 C          55.7781   91.8378   -7.1688 C.3     1  UNL1        0.1742
     50 O          55.5483   91.6193   -5.7027 O.3     1  UNL1       -0.3484
@<TRIPOS>BOND
     1    49    50    1
     2    50    48    1
     3    48    47    1
     4    47    46    1
     5    46    45    1
     6    45    37    1
     7    37    38    2
     8    37    39   am
     9    39    40    1
    10    40    41    1
    11    41    42    1
    12    42    31    1
    13    31    32    1
    14    32    33    1
    15    33    34    1
    16    34     1    1
    17     1     2    2
    18     2     3    1
    19     3     4    1
    20     3     5    2
    21     5     6    1
    22     6     7    2
    23     7    11    1
    24    11    12    1
    25    12    18    1
    26    18    20    1
    27    20    21    1
    28    21    22    1
    29    21    24    1
    30    24    25   ar
    31    25    26   ar
    32    26    27   ar
    33    27    28   ar
    34    28    29    1
    35    28    30   ar
    36    12    13    2
    37    13    14    1
    38    14    15    2
    39    15    16    1
    40    16    17    2
    41     7     8    1
    42     8     9    2
    43     9    10    1
    44    34    35    1
    45    35    36    1
    46    42    43    1
    47    43    44    1
    48    44    39    1
    49    36    31    1
    50    10     1    1
    51     9     5    1
    52    16    11    1
    53    30    24   ar
    54    18    19    1
    55    22    23    1
@<TRIPOS>MOLECULE
*****
 50 55 0 0 0
SMALL
GASTEIGER

@<TRIPOS>ATOM
      1 C          60.3146   90.1771    6.8596 C.2     1  UNL1        0.0332
      2 C          59.5339   88.9296    7.1495 C.2     1  UNL1        0.0101
      3 C          59.7827   88.1665    8.4168 C.2     1  UNL1        0.0255
      4 C          59.0019   86.9190    8.7067 C.3     1  UNL1        0.0351
      5 C          60.8123   88.6511    9.3941 C.2     1  UNL1        0.2278
      6 N          61.2730   88.1127   10.7162 N.2     1  UNL1       -0.0345
      7 C          62.3384   89.0276   11.2433 C.2     1  UNL1        0.3649
      8 N          62.5363   90.1313   10.2470 N.2     1  UNL1       -0.0380
      9 C          61.5930   89.8987    9.1041 C.2     1  UNL1        0.2184
     10 C          61.3442   90.6616    7.8369 C.3     1  UNL1        0.1186
     11 C          63.0765   88.8668   12.5392 C.3     1  UNL1        0.2250
     12 C          63.3913   87.4951   13.0579 C.2     1  UNL1        0.0436
     13 C          64.1294   87.3344   14.3539 C.2     1  UNL1        0.0288
     14 C          64.5528   88.5455   15.1311 C.2     1  UNL1        0.0896
     15 N          64.2381   89.9173   14.6123 N.am    1  UNL1       -0.1770
     16 C          63.4999   90.0779   13.3164 C.2     1  UNL1        0.2627
     17 O          63.1852   91.4497   12.7976 O.2     1  UNL1       -0.2719
     18 N          62.9679   86.2839   12.2809 N.pl3   1  UNL1       -0.3329
     19 H          62.3384   86.3764   11.5296 H       1  UNL1        0.1466
     20 C          63.5037   84.9319   12.6483 C.3     1  UNL1        0.1211
     21 C          62.6898   84.0110   13.5081 C.3     1  UNL1        0.1522
     22 O          61.9570   84.5504   14.7006 O.3     1  UNL1       -0.3783
     23 H          62.1142   85.5049   14.7722 H       1  UNL1        0.2109
     24 C          62.6086   82.5506   13.1754 C.ar    1  UNL1        0.0067
     25 C          62.2428   81.5582   14.2389 C.ar    1  UNL1       -0.0018
     26 C          62.1616   80.0978   13.9062 C.ar    1  UNL1        0.0006
     27 C          62.4462   79.6298   12.5098 C.ar    1  UNL1        0.0114
     28 C          62.8120   80.6222   11.4462 C.ar    1  UNL1        0.0574
     29 CL         63.0966   80.1542   10.0498 Cl      1  UNL1       -0.0823
     30 C          62.8932   82.0826   11.7789 C.ar    1  UNL1        0.0095
     31 C          59.5681   92.4661    3.0578 C.3     1  UNL1        0.0610
     32 C          60.9614   92.0420    3.4166 C.3     1  UNL1        0.0374
     33 C          61.2102   91.2789    4.6839 C.3     1  UNL1        0.0919
     34 N          60.0658   90.9401    5.5923 N.pl3   1  UNL1       -0.3103
     35 C          58.6725   91.3642    5.2335 C.3     1  UNL1        0.0919
     36 C          58.4236   92.1272    3.9663 C.3     1  UNL1        0.0374
     37 C          58.5727   95.5182   -2.0111 C.2     1  UNL1        0.2559
     38 O          59.3372   96.7781   -2.2904 O.2     1  UNL1       -0.2721
     39 N          58.8215   94.7551   -0.7439 N.am    1  UNL1       -0.2746
     40 C          58.0571   93.4952   -0.4646 C.3     1  UNL1        0.1108
     41 C          58.3059   92.7321    0.8026 C.3     1  UNL1        0.0939
     42 N          59.3192   93.2291    1.7906 N.3     1  UNL1       -0.2710
     43 C          60.0837   94.4891    1.5113 C.3     1  UNL1        0.0939
     44 C          59.8349   95.2521    0.2441 C.3     1  UNL1        0.1108
     45 C          57.5593   95.0212   -2.9991 C.3     1  UNL1        0.2272
     46 O          56.1816   95.6139   -3.0227 O.3     1  UNL1       -0.3417
     47 C          55.2279   95.3398   -1.8979 C.3     1  UNL1        0.1748
     48 C          53.7484   95.3854   -2.1411 C.3     1  UNL1        0.1742
     49 C          51.7558   96.7019   -3.1640 C.3     1  UNL1        0.1742
     50 O          53.0809   96.6900   -2.4610 O.3     1  UNL1       -0.3484
@<TRIPOS>BOND
     1    49    50    1
     2    50    48    1
     3    48    47    1
     4    47    46    1
     5    46    45    1
     6    45    37    1
     7    37    38    2
     8    37    39   am
     9    39    40    1
    10    40    41    1
    11    41    42    1
    12    42    31    1
    13    31    32    1
    14    32    33    1
    15    33    34    1
    16    34     1    1
    17     1     2    2
    18     2     3    1
    19     3     4    1
    20     3     5    2
    21     5     6    1
    22     6     7    2
    23     7    11    1
    24    11    12    1
    25    12    18    1
    26    18    20    1
    27    20    21    1
    28    21    22    1
    29    21    24    1
    30    24    25   ar
    31    25    26   ar
    32    26    27   ar
    33    27    28   ar
    34    28    29    1
    35    28    30   ar
    36    12    13    2
    37    13    14    1
    38    14    15    2
    39    15    16    1
    40    16    17    2
    41     7     8    1
    42     8     9    2
    43     9    10    1
    44    34    35    1
    45    35    36    1
    46    42    43    1
    47    43    44    1
    48    44    39    1
    49    36    31    1
    50    10     1    1
    51     9     5    1
    52    16    11    1
    53    30    24   ar
    54    18    19    1
    55    22    23    1
@<TRIPOS>MOLECULE
*****
 50 55 0 0 0
SMALL
GASTEIGER

@<TRIPOS>ATOM
      1 C          60.3125   90.1795    6.8256 C.2     1  UNL1        0.0332
      2 C          59.5277   88.9378    7.1289 C.2     1  UNL1        0.0101
      3 C          59.7747   88.1870    8.4039 C.2     1  UNL1        0.0255
      4 C          58.9898   86.9452    8.7071 C.3     1  UNL1        0.0351
      5 C          60.8065   88.6782    9.3755 C.2     1  UNL1        0.2278
      6 N          61.2662   88.1519   10.7028 N.2     1  UNL1       -0.0345
      7 C          62.3351   89.0685   11.2198 C.2     1  UNL1        0.3649
      8 N          62.5361   90.1612   10.2121 N.2     1  UNL1       -0.0380
      9 C          61.5913   89.9200    9.0722 C.2     1  UNL1        0.2184
     10 C          61.3443   90.6706    7.7972 C.3     1  UNL1        0.1186
     11 C          63.0734   88.9187   12.5169 C.3     1  UNL1        0.2250
     12 C          63.3716   87.5512   13.0566 C.2     1  UNL1        0.0436
     13 C          64.1099   87.4015   14.3537 C.2     1  UNL1        0.0288
     14 C          64.5502   88.6191   15.1111 C.2     1  UNL1        0.0896
     15 N          64.2520   89.9865   14.5714 N.am    1  UNL1       -0.1770
     16 C          63.5137   90.1363   13.2743 C.2     1  UNL1        0.2627
     17 O          63.2155   91.5037   12.7346 O.2     1  UNL1       -0.2719
     18 N          62.9314   86.3336   12.2993 N.pl3   1  UNL1       -0.3329
     19 H          62.2805   86.4189   11.5656 H       1  UNL1        0.1466
     20 C          63.4830   84.9861   12.6597 C.3     1  UNL1        0.1211
     21 C          62.6878   84.0586   13.5301 C.3     1  UNL1        0.1522
     22 O          61.9811   84.5890   14.7422 O.3     1  UNL1       -0.3783
     23 H          62.1397   85.5430   14.8174 H       1  UNL1        0.2109
     24 C          62.5995   82.6007   13.1883 C.ar    1  UNL1        0.0067
     25 C          62.2313   81.6033   14.2463 C.ar    1  UNL1       -0.0018
     26 C          62.1429   80.1454   13.9046 C.ar    1  UNL1        0.0006
     27 C          62.4227   79.6850   12.5047 C.ar    1  UNL1        0.0114
     28 C          62.7908   80.6824   11.4466 C.ar    1  UNL1        0.0574
     29 CL         63.0706   80.2219   10.0467 Cl      1  UNL1       -0.0823
     30 C          62.8792   82.1403   11.7884 C.ar    1  UNL1        0.0095
     31 C          59.5715   92.4316    3.0008 C.3     1  UNL1        0.0610
     32 C          60.9670   92.0295    3.3760 C.3     1  UNL1        0.0374
     33 C          61.2140   91.2788    4.6510 C.3     1  UNL1        0.0919
     34 N          60.0655   90.9302    5.5506 N.pl3   1  UNL1       -0.3103
     35 C          58.6700   91.3323    5.1754 C.3     1  UNL1        0.0919
     36 C          58.4230   92.0830    3.9005 C.3     1  UNL1        0.0374
     37 C          58.5833   95.4344   -2.0989 C.2     1  UNL1        0.2559
     38 O          57.6225   94.8915   -3.1148 O.2     1  UNL1       -0.2721
     39 N          58.8304   94.6837   -0.8239 N.am    1  UNL1       -0.2746
     40 C          59.7911   95.2266    0.1919 C.3     1  UNL1        0.1108
     41 C          60.0382   94.4759    1.4669 C.3     1  UNL1        0.0939
     42 N          59.3244   93.1823    1.7259 N.3     1  UNL1       -0.2710
     43 C          58.3636   92.6394    0.7100 C.3     1  UNL1        0.0939
     44 C          58.1166   93.3901   -0.5649 C.3     1  UNL1        0.1108
     45 C          59.2971   96.7280   -2.3579 C.3     1  UNL1        0.2272
     46 O          60.5061   96.7528   -3.2454 O.3     1  UNL1       -0.3417
     47 C          61.7027   95.9143   -2.9062 C.3     1  UNL1        0.1748
     48 C          62.1492   94.8311   -3.8430 C.3     1  UNL1        0.1742
     49 C          63.7306   92.7767   -4.0116 C.3     1  UNL1        0.1742
     50 O          62.6443   93.5246   -3.2971 O.3     1  UNL1       -0.3484
@<TRIPOS>BOND
     1    49    50    1
     2    50    48    1
     3    48    47    1
     4    47    46    1
     5    46    45    1
     6    45    37    1
     7    37    38    2
     8    37    39   am
     9    39    40    1
    10    40    41    1
    11    41    42    1
    12    42    31    1
    13    31    32    1
    14    32    33    1
    15    33    34    1
    16    34     1    1
    17     1     2    2
    18     2     3    1
    19     3     4    1
    20     3     5    2
    21     5     6    1
    22     6     7    2
    23     7    11    1
    24    11    12    1
    25    12    18    1
    26    18    20    1
    27    20    21    1
    28    21    22    1
    29    21    24    1
    30    24    25   ar
    31    25    26   ar
    32    26    27   ar
    33    27    28   ar
    34    28    29    1
    35    28    30   ar
    36    12    13    2
    37    13    14    1
    38    14    15    2
    39    15    16    1
    40    16    17    2
    41     7     8    1
    42     8     9    2
    43     9    10    1
    44    34    35    1
    45    35    36    1
    46    42    43    1
    47    43    44    1
    48    44    39    1
    49    36    31    1
    50    10     1    1
    51     9     5    1
    52    16    11    1
    53    30    24   ar
    54    18    19    1
    55    22    23    1
@<TRIPOS>MOLECULE
*****
 50 55 0 0 0
SMALL
GASTEIGER

@<TRIPOS>ATOM
      1 C          60.1681   89.6840    6.7963 C.2     1  UNL1        0.0332
      2 C          59.2103   88.5576    7.0489 C.2     1  UNL1        0.0101
      3 C          59.3718   87.6942    8.2649 C.2     1  UNL1        0.0255
      4 C          58.4139   86.5677    8.5174 C.3     1  UNL1        0.0351
      5 C          60.4910   87.9572    9.2282 C.2     1  UNL1        0.2278
      6 N          60.8982   87.2795   10.5029 N.2     1  UNL1       -0.0345
      7 C          62.1077   87.9870   11.0381 C.2     1  UNL1        0.3649
      8 N          62.4480   89.1021   10.0942 N.2     1  UNL1       -0.0380
      9 C          61.4488   89.0837    8.9756 C.2     1  UNL1        0.2184
     10 C          61.2873   89.9470    7.7597 C.3     1  UNL1        0.1186
     11 C          62.8472   87.6405   12.2963 C.3     1  UNL1        0.2250
     12 C          63.4710   88.7257   13.1228 C.2     1  UNL1        0.0436
     13 C          64.2104   88.3790   14.3810 C.2     1  UNL1        0.0288
     14 C          64.3260   86.9472   14.8128 C.2     1  UNL1        0.0896
     15 N          63.7022   85.8619   13.9863 N.am    1  UNL1       -0.1770
     16 C          62.9628   86.2086   12.7281 C.2     1  UNL1        0.2627
     17 O          62.3390   85.1234   11.9016 O.2     1  UNL1       -0.2719
     18 N          63.3554   90.1576   12.6911 N.pl3   1  UNL1       -0.3329
     19 H          62.9164   90.3808   11.8386 H       1  UNL1        0.1466
     20 C          63.9086   91.2494   13.5582 C.3     1  UNL1        0.1211
     21 C          65.1212   92.0148   13.1182 C.3     1  UNL1        0.1522
     22 O          65.1883   92.5805   11.7305 O.3     1  UNL1       -0.3783
     23 H          64.3727   92.3626   11.2528 H       1  UNL1        0.2109
     24 C          66.2667   92.2146   14.0657 C.ar    1  UNL1        0.0067
     25 C          66.0009   92.5272   15.5085 C.ar    1  UNL1       -0.0018
     26 C          67.1464   92.7270   16.4561 C.ar    1  UNL1        0.0006
     27 C          68.5578   92.6142   15.9609 C.ar    1  UNL1        0.0114
     28 C          68.8236   92.3017   14.5181 C.ar    1  UNL1        0.0574
     29 CL         70.2350   92.1889   14.0230 Cl      1  UNL1       -0.0823
     30 C          67.6781   92.1019   13.5706 C.ar    1  UNL1        0.0095
     31 C          59.6840   92.2743    3.1485 C.3     1  UNL1        0.0610
     32 C          58.4918   91.9422    3.9962 C.3     1  UNL1        0.0374
     33 C          58.6532   91.0788    5.2121 C.3     1  UNL1        0.0919
     34 N          60.0067   90.5474    5.5804 N.pl3   1  UNL1       -0.3103
     35 C          61.1988   90.8795    4.7328 C.3     1  UNL1        0.0919
     36 C          61.0375   91.7429    3.5168 C.3     1  UNL1        0.0374
     37 C          59.0385   95.7279   -1.7152 C.2     1  UNL1        0.2559
     38 O          57.9210   95.4633   -2.6800 O.2     1  UNL1       -0.2721
     39 N          59.1999   94.8645   -0.4992 N.am    1  UNL1       -0.2746
     40 C          60.3175   95.1291    0.4655 C.3     1  UNL1        0.1108
     41 C          60.4789   94.2657    1.6815 C.3     1  UNL1        0.0939
     42 N          59.5226   93.1377    1.9326 N.3     1  UNL1       -0.2710
     43 C          58.4050   92.8731    0.9678 C.3     1  UNL1        0.0939
     44 C          58.2436   93.7365   -0.2481 C.3     1  UNL1        0.1108
     45 C          59.9948   96.8559   -1.9663 C.3     1  UNL1        0.2272
     46 O          61.4736   96.6160   -1.8923 O.3     1  UNL1       -0.3417
     47 C          62.1330   95.6896   -2.8706 C.3     1  UNL1        0.1748
     48 C          63.6115   95.4479   -2.7951 C.3     1  UNL1        0.1742
     49 C          64.7845   94.9247   -0.5367 C.3     1  UNL1        0.1742
     50 O          64.1596   94.4525   -1.8160 O.3     1  UNL1       -0.3484
@<TRIPOS>BOND
     1    49    50    1
     2    50    48    1
     3    48    47    1
     4    47    46    1
     5    46    45    1
     6    45    37    1
     7    37    38    2
     8    37    39   am
     9    39    40    1
    10    40    41    1
    11    41    42    1
    12    42    31    1
    13    31    32    1
    14    32    33    1
    15    33    34    1
    16    34     1    1
    17     1     2    2
    18     2     3    1
    19     3     4    1
    20     3     5    2
    21     5     6    1
    22     6     7    2
    23     7    11    1
    24    11    12    1
    25    12    18    1
    26    18    20    1
    27    20    21    1
    28    21    22    1
    29    21    24    1
    30    24    25   ar
    31    25    26   ar
    32    26    27   ar
    33    27    28   ar
    34    28    29    1
    35    28    30   ar
    36    12    13    2
    37    13    14    1
    38    14    15    2
    39    15    16    1
    40    16    17    2
    41     7     8    1
    42     8     9    2
    43     9    10    1
    44    34    35    1
    45    35    36    1
    46    42    43    1
    47    43    44    1
    48    44    39    1
    49    36    31    1
    50    10     1    1
    51     9     5    1
    52    16    11    1
    53    30    24   ar
    54    18    19    1
    55    22    23    1
