@<TRIPOS>MOLECULE
*****
 39 42 0 0 0
SMALL
GASTEIGER

@<TRIPOS>ATOM
      1 C          61.3380   88.1281    9.3245 C.3     1  UNL1        0.1812
      2 O          62.5869   87.8662   10.1129 O.3     1  UNL1       -0.3784
      3 H          62.8648   86.9460    9.9822 H       1  UNL1        0.2106
      4 C          60.0892   88.3900    8.5360 C.3     1  UNL1        0.4197
      5 F          58.8402   88.6518    7.7475 F       1  UNL1       -0.1676
      6 F          59.7642   89.5462    9.4347 F       1  UNL1       -0.1676
      7 F          60.4141   87.2338    7.6373 F       1  UNL1       -0.1676
      8 C          61.3522   86.7114    8.8313 C.3     1  UNL1        0.0398
      9 C          62.9153   85.3370    8.4220 C.3     1  UNL1        0.0045
     10 C          62.0648   85.6509    9.6171 C.3     1  UNL1        0.0215
     11 C          61.2143   85.9648   10.8121 C.3     1  UNL1        0.0045
     12 C          62.7775   84.5904   10.4028 C.ar    1  UNL1       -0.0214
     13 C          63.7435   83.6704    9.7168 C.ar    1  UNL1       -0.0042
     14 C          64.4561   82.6099   10.5025 C.ar    1  UNL1        0.0010
     15 C          64.2027   82.4693   11.9743 C.ar    1  UNL1        0.0199
     16 C          63.2368   83.3892   12.6603 C.ar    1  UNL1        0.1214
     17 C          62.5241   84.4497   11.8745 C.ar    1  UNL1        0.0156
     18 S          62.9834   83.2486   14.1321 S.O2    1  UNL1        0.0571
     19 N          62.7300   83.1081   15.6038 N.3     1  UNL1       -0.2035
     20 O          62.4091   84.6339   14.1655 O.2     1  UNL1       -0.1532
     21 O          63.5576   81.8633   14.0987 O.2     1  UNL1       -0.1532
     22 H          62.3044   83.9644   15.9588 H       1  UNL1        0.1442
     23 H          63.6130   82.9419   16.0865 H       1  UNL1        0.1442
     24 C          61.3238   89.5446    9.8175 C.3     1  UNL1        0.0811
     25 C          62.1857   89.9432   10.9786 C.2     1  UNL1        0.0614
     26 C          63.4247   90.7859   10.9087 C.2     1  UNL1        0.0163
     27 C          63.9647   90.9326   12.3004 C.2     1  UNL1        0.0264
     28 C          65.1638   91.6538   12.8409 C.2     1  UNL1        0.0903
     29 C          65.4576   91.6231   14.3116 C.2     1  UNL1        0.3192
     30 N          64.5523   90.8712   15.2417 N.2     1  UNL1       -0.0585
     31 C          63.3532   90.1500   14.7012 C.3     1  UNL1        0.3085
     32 C          63.0594   90.1807   13.2306 C.2     1  UNL1        0.1121
     33 N          61.9599   89.5692   12.4136 N.2     1  UNL1       -0.2495
     34 N          66.6566   92.3442   14.8521 N.pl3   1  UNL1       -0.1860
     35 C          67.7039   91.5899   15.6165 C.3     1  UNL1        0.2346
     36 C          68.9030   92.3111   16.1570 C.3     1  UNL1        0.1929
     37 O          69.0548   93.7866   15.9331 O.3     1  UNL1       -0.3449
     38 C          68.0075   94.5408   15.1687 C.3     1  UNL1        0.1929
     39 C          66.8084   93.8196   14.6282 C.3     1  UNL1        0.2346
@<TRIPOS>BOND
     1     9    10    1
     2    10    11    1
     3    10     8    1
     4     8     1    1
     5     1     2    1
     6     1    24    1
     7    24    25    1
     8    25    26    2
     9    26    27    1
    10    27    28    2
    11    28    29    1
    12    29    34    1
    13    34    35    1
    14    35    36    1
    15    36    37    1
    16    37    38    1
    17    38    39    1
    18    29    30    2
    19    30    31    1
    20    31    32    1
    21    32    33    2
    22     1     4    1
    23     4     5    1
    24     4     6    1
    25     4     7    1
    26    10    12    1
    27    12    13   ar
    28    13    14   ar
    29    14    15   ar
    30    15    16   ar
    31    16    18    1
    32    18    19    1
    33    18    20    2
    34    18    21    2
    35    16    17   ar
    36    33    25    1
    37    17    12   ar
    38    32    27    1
    39    39    34    1
    40     2     3    1
    41    19    22    1
    42    19    23    1
@<TRIPOS>MOLECULE
*****
 39 42 0 0 0
SMALL
GASTEIGER

@<TRIPOS>ATOM
      1 C          61.1917   87.8884    9.2272 C.3     1  UNL1        0.1812
      2 O          62.6200   87.9461    9.6816 O.3     1  UNL1       -0.3784
      3 H          63.0591   87.1062    9.4752 H       1  UNL1        0.2106
      4 C          59.7634   87.8308    8.7728 C.3     1  UNL1        0.4197
      5 F          58.3350   87.7731    8.3183 F       1  UNL1       -0.1676
      6 F          59.3136   88.2895   10.1283 F       1  UNL1       -0.1676
      7 F          60.2131   87.3721    7.4173 F       1  UNL1       -0.1676
      8 C          61.4069   86.4904    8.7279 C.3     1  UNL1        0.0398
      9 C          61.2843   85.8578   10.7489 C.3     1  UNL1        0.0045
     10 C          62.1454   85.4968    9.5749 C.3     1  UNL1        0.0215
     11 C          63.0065   85.1359    8.4009 C.3     1  UNL1        0.0045
     12 C          62.8838   84.5033   10.4220 C.ar    1  UNL1       -0.0214
     13 C          63.9376   83.6303    9.8075 C.ar    1  UNL1       -0.0042
     14 C          64.6760   82.6367   10.6546 C.ar    1  UNL1        0.0010
     15 C          64.3607   82.5161   12.1162 C.ar    1  UNL1        0.0199
     16 C          63.3070   83.3891   12.7306 C.ar    1  UNL1        0.1214
     17 C          62.5686   84.3827   11.8835 C.ar    1  UNL1        0.0156
     18 S          62.9917   83.2686   14.1922 S.O2    1  UNL1        0.0571
     19 N          62.6764   83.1481   15.6537 N.3     1  UNL1       -0.2035
     20 O          62.4393   84.6631   14.1880 O.2     1  UNL1       -0.1532
     21 O          63.5441   81.8740   14.1964 O.2     1  UNL1       -0.1532
     22 H          62.2507   84.0148   15.9822 H       1  UNL1        0.1442
     23 H          63.5362   82.9731   16.1737 H       1  UNL1        0.1442
     24 C          60.9764   89.2864    9.7265 C.3     1  UNL1        0.0811
     25 C          62.1125   90.0446   10.3465 C.2     1  UNL1        0.0614
     26 C          62.6793   89.8190   11.7169 C.2     1  UNL1        0.0163
     27 C          63.7984   90.7965   11.9224 C.2     1  UNL1        0.0264
     28 C          64.7198   91.0383   13.0811 C.2     1  UNL1        0.0903
     29 C          65.7662   92.1097   12.9963 C.2     1  UNL1        0.3192
     30 N          65.8911   92.9393   11.7529 N.2     1  UNL1       -0.0585
     31 C          64.9697   92.6976   10.5942 C.3     1  UNL1        0.3085
     32 C          63.9233   91.6262   10.6789 C.2     1  UNL1        0.1121
     33 N          62.8814   91.1614    9.7050 N.2     1  UNL1       -0.2495
     34 N          66.6876   92.3515   14.1549 N.pl3   1  UNL1       -0.1860
     35 C          68.1704   92.4068   13.9351 C.3     1  UNL1        0.2346
     36 C          69.0919   92.6486   15.0938 C.3     1  UNL1        0.1929
     37 O          68.5304   92.8351   16.4723 O.3     1  UNL1       -0.3449
     38 C          67.0477   92.7799   16.6920 C.3     1  UNL1        0.1929
     39 C          66.1263   92.5381   15.5334 C.3     1  UNL1        0.2346
@<TRIPOS>BOND
     1     9    10    1
     2    10    11    1
     3    10     8    1
     4     8     1    1
     5     1     2    1
     6     1    24    1
     7    24    25    1
     8    25    26    2
     9    26    27    1
    10    27    28    2
    11    28    29    1
    12    29    34    1
    13    34    35    1
    14    35    36    1
    15    36    37    1
    16    37    38    1
    17    38    39    1
    18    29    30    2
    19    30    31    1
    20    31    32    1
    21    32    33    2
    22     1     4    1
    23     4     5    1
    24     4     6    1
    25     4     7    1
    26    10    12    1
    27    12    13   ar
    28    13    14   ar
    29    14    15   ar
    30    15    16   ar
    31    16    18    1
    32    18    19    1
    33    18    20    2
    34    18    21    2
    35    16    17   ar
    36    33    25    1
    37    17    12   ar
    38    32    27    1
    39    39    34    1
    40     2     3    1
    41    19    22    1
    42    19    23    1
@<TRIPOS>MOLECULE
*****
 39 42 0 0 0
SMALL
GASTEIGER

@<TRIPOS>ATOM
      1 C          61.1370   89.0606   10.3779 C.3     1  UNL1        0.1812
      2 O          62.3249   88.3698    9.7764 O.3     1  UNL1       -0.3784
      3 H          62.2676   87.4174    9.9509 H       1  UNL1        0.2106
      4 C          59.9492   89.7514   10.9793 C.3     1  UNL1        0.4197
      5 F          58.7613   90.4422   11.5809 F       1  UNL1       -0.1676
      6 F          59.4252   90.0469    9.6052 F       1  UNL1       -0.1676
      7 F          60.4731   89.4559   12.3534 F       1  UNL1       -0.1676
      8 C          60.6231   87.7426   10.8767 C.3     1  UNL1        0.0398
      9 C          62.1790   86.8939   12.0425 C.3     1  UNL1        0.0045
     10 C          61.4790   86.5153   10.7710 C.3     1  UNL1        0.0215
     11 C          60.7789   86.1366    9.4996 C.3     1  UNL1        0.0045
     12 C          62.3348   85.2880   10.6653 C.ar    1  UNL1       -0.0214
     13 C          63.0372   84.9720    9.3781 C.ar    1  UNL1       -0.0042
     14 C          63.8931   83.7447    9.2723 C.ar    1  UNL1        0.0010
     15 C          64.0466   82.8333   10.4539 C.ar    1  UNL1        0.0199
     16 C          63.3443   83.1493   11.7410 C.ar    1  UNL1        0.1214
     17 C          62.4884   84.3766   11.8468 C.ar    1  UNL1        0.0156
     18 S          63.4978   82.2380   12.9226 S.O2    1  UNL1        0.0571
     19 N          63.6513   81.3267   14.1040 N.3     1  UNL1       -0.2035
     20 O          64.7336   81.6501   12.3085 O.2     1  UNL1       -0.1532
     21 O          62.2620   82.8259   13.5367 O.2     1  UNL1       -0.1532
     22 H          64.4784   80.7432   13.9781 H       1  UNL1        0.1442
     23 H          62.8257   80.7332   14.1852 H       1  UNL1        0.1442
     24 C          61.6509   90.3786    9.8791 C.3     1  UNL1        0.0811
     25 C          62.8499   91.0085   10.5237 C.2     1  UNL1        0.0614
     26 C          63.3348   90.7559   11.9205 C.2     1  UNL1        0.0163
     27 C          64.5591   91.5929   12.1448 C.2     1  UNL1        0.0264
     28 C          65.4616   91.7535   13.3321 C.2     1  UNL1        0.0903
     29 C          66.6359   92.6841   13.2612 C.2     1  UNL1        0.3192
     30 N          66.9078   93.4541   12.0030 N.2     1  UNL1       -0.0585
     31 C          66.0053   93.2935   10.8157 C.3     1  UNL1        0.3085
     32 C          64.8310   92.3630   10.8865 C.2     1  UNL1        0.1121
     33 N          63.7747   92.0018    9.8846 N.2     1  UNL1       -0.2495
     34 N          67.5384   92.8446   14.4486 N.pl3   1  UNL1       -0.1860
     35 C          67.9760   94.2135   14.8783 C.3     1  UNL1        0.2346
     36 C          68.8785   94.3741   16.0657 C.3     1  UNL1        0.1929
     37 O          69.3433   93.1657   16.8233 O.3     1  UNL1       -0.3449
     38 C          68.9056   91.7969   16.3935 C.3     1  UNL1        0.1929
     39 C          68.0032   91.6363   15.2062 C.3     1  UNL1        0.2346
@<TRIPOS>BOND
     1     9    10    1
     2    10    11    1
     3    10     8    1
     4     8     1    1
     5     1     2    1
     6     1    24    1
     7    24    25    1
     8    25    26    2
     9    26    27    1
    10    27    28    2
    11    28    29    1
    12    29    34    1
    13    34    35    1
    14    35    36    1
    15    36    37    1
    16    37    38    1
    17    38    39    1
    18    29    30    2
    19    30    31    1
    20    31    32    1
    21    32    33    2
    22     1     4    1
    23     4     5    1
    24     4     6    1
    25     4     7    1
    26    10    12    1
    27    12    13   ar
    28    13    14   ar
    29    14    15   ar
    30    15    16   ar
    31    16    18    1
    32    18    19    1
    33    18    20    2
    34    18    21    2
    35    16    17   ar
    36    33    25    1
    37    17    12   ar
    38    32    27    1
    39    39    34    1
    40     2     3    1
    41    19    22    1
    42    19    23    1
@<TRIPOS>MOLECULE
*****
 39 42 0 0 0
SMALL
GASTEIGER

@<TRIPOS>ATOM
      1 C          60.6825   87.6823    9.0729 C.3     1  UNL1        0.1812
      2 O          61.0027   86.4910    8.2195 O.3     1  UNL1       -0.3784
      3 H          61.8380   86.0965    8.5154 H       1  UNL1        0.2106
      4 C          60.3624   88.8736    9.9262 C.3     1  UNL1        0.4197
      5 F          60.0422   90.0650   10.7796 F       1  UNL1       -0.1676
      6 F          61.5877   89.5705    9.4131 F       1  UNL1       -0.1676
      7 F          59.1372   88.1769   10.4392 F       1  UNL1       -0.1676
      8 C          61.9394   87.4564    9.8599 C.3     1  UNL1        0.0398
      9 C          63.0960   85.9686    8.8859 C.3     1  UNL1        0.0045
     10 C          62.3727   86.0604   10.1967 C.3     1  UNL1        0.0215
     11 C          61.6493   86.1522   11.5076 C.3     1  UNL1        0.0045
     12 C          62.8059   84.6644   10.5335 C.ar    1  UNL1       -0.0214
     13 C          63.6533   83.8888    9.5689 C.ar    1  UNL1       -0.0042
     14 C          64.0865   82.4927    9.9058 C.ar    1  UNL1        0.0010
     15 C          63.6724   81.8724   11.2072 C.ar    1  UNL1        0.0199
     16 C          62.8251   82.6480   12.1718 C.ar    1  UNL1        0.1214
     17 C          62.3918   84.0440   11.8349 C.ar    1  UNL1        0.0156
     18 S          62.4109   82.0277   13.4732 S.O2    1  UNL1        0.0571
     19 N          61.9968   81.4073   14.7746 N.3     1  UNL1       -0.2035
     20 O          62.4321   80.6712   12.8334 O.2     1  UNL1       -0.1532
     21 O          62.3897   83.3841   14.1131 O.2     1  UNL1       -0.1532
     22 H          61.9165   80.3970   14.6593 H       1  UNL1        0.1442
     23 H          61.0958   81.7894   15.0619 H       1  UNL1        0.1442
     24 C          59.4257   87.9083    8.2859 C.3     1  UNL1        0.0811
     25 C          59.3894   88.9591    7.2162 C.2     1  UNL1        0.0614
     26 C          60.5681   89.4698    6.4415 C.2     1  UNL1        0.0163
     27 C          60.0752   90.5101    5.4798 C.2     1  UNL1        0.0264
     28 C          60.7854   91.3540    4.4632 C.2     1  UNL1        0.0903
     29 C          60.0122   92.3302    3.6269 C.2     1  UNL1        0.3192
     30 N          58.5290   92.4624    3.8071 N.2     1  UNL1       -0.0585
     31 C          57.8188   91.6184    4.8236 C.3     1  UNL1        0.3085
     32 C          58.5919   90.6423    5.6600 C.2     1  UNL1        0.1121
     33 N          58.1681   89.6837    6.7331 N.2     1  UNL1       -0.2495
     34 N          60.7224   93.1742    2.6103 N.pl3   1  UNL1       -0.1860
     35 C          61.9914   92.6809    1.9807 C.3     1  UNL1        0.2346
     36 C          62.7016   93.5249    0.9641 C.3     1  UNL1        0.1929
     37 O          62.1428   94.8621    0.5772 O.3     1  UNL1       -0.3449
     38 C          60.8738   95.3553    1.2069 C.3     1  UNL1        0.1929
     39 C          60.1637   94.5113    2.2234 C.3     1  UNL1        0.2346
@<TRIPOS>BOND
     1     9    10    1
     2    10    11    1
     3    10     8    1
     4     8     1    1
     5     1     2    1
     6     1    24    1
     7    24    25    1
     8    25    26    2
     9    26    27    1
    10    27    28    2
    11    28    29    1
    12    29    34    1
    13    34    35    1
    14    35    36    1
    15    36    37    1
    16    37    38    1
    17    38    39    1
    18    29    30    2
    19    30    31    1
    20    31    32    1
    21    32    33    2
    22     1     4    1
    23     4     5    1
    24     4     6    1
    25     4     7    1
    26    10    12    1
    27    12    13   ar
    28    13    14   ar
    29    14    15   ar
    30    15    16   ar
    31    16    18    1
    32    18    19    1
    33    18    20    2
    34    18    21    2
    35    16    17   ar
    36    33    25    1
    37    17    12   ar
    38    32    27    1
    39    39    34    1
    40     2     3    1
    41    19    22    1
    42    19    23    1
