@<TRIPOS>MOLECULE
*****
 23 25 0 0 0
SMALL
GASTEIGER

@<TRIPOS>ATOM
      1 C          61.3917   88.0895   10.9551 C.ar    1  UNL1       -0.0143
      2 C          62.2348   86.8895   11.2698 C.ar    1  UNL1        0.0051
      3 S          62.0774   85.9056   10.1486 S.2     1  UNL1       -0.0915
      4 C          61.1370   86.4975    9.1410 C.ar    1  UNL1        0.0288
      5 C          60.6119   85.9819    7.8340 C.ar    1  UNL1        0.0065
      6 C          59.6630   86.8160    7.0255 C.ar    1  UNL1        0.0005
      7 C          59.2392   88.1658    7.5240 C.ar    1  UNL1        0.0000
      8 C          59.7643   88.6814    8.8310 C.ar    1  UNL1        0.0002
      9 C          60.7132   87.8473    9.6395 C.ar    1  UNL1        0.0025
     10 C          59.8887   89.8514   12.1328 C.3     1  UNL1        0.0111
     11 C          61.2516   89.3164   11.8067 C.3     1  UNL1        0.0635
     12 C          62.4743   90.0084   12.3320 C.ar    1  UNL1        0.0732
     13 N          62.8880   89.8182   13.7613 N.ar    1  UNL1       -0.2470
     14 C          64.1107   90.5101   14.2867 C.ar    1  UNL1        0.0985
     15 C          64.9198   91.3924   13.3828 C.ar    1  UNL1        0.0215
     16 C          64.5062   91.5826   11.9536 C.ar    1  UNL1        0.0142
     17 C          63.2835   90.8907   11.4282 C.ar    1  UNL1        0.0715
     18 CL         62.8699   91.0810    9.9990 Cl      1  UNL1       -0.0810
     19 C          63.0859   86.7056   12.4912 C.3     1  UNL1        0.0499
     20 C          63.3101   85.3314   13.0492 C.3     1  UNL1        0.0774
     21 N          63.2641   85.1072   14.5316 N.3     1  UNL1       -0.2700
     22 C          64.1239   85.9330   15.4421 C.3     1  UNL1        0.0897
     23 C          62.3583   84.0573   15.1036 C.3     1  UNL1        0.0897
@<TRIPOS>BOND
     1    11    10    1
     2    11    12    1
     3    12    13   ar
     4    13    14   ar
     5    14    15   ar
     6    15    16   ar
     7    16    17   ar
     8    17    18    1
     9    11     1    1
    10     1     2   ar
    11     2    19    1
    12    19    20    1
    13    20    21    1
    14    21    22    1
    15    21    23    1
    16     2     3   ar
    17     3     4   ar
    18     4     5   ar
    19     5     6   ar
    20     6     7   ar
    21     7     8   ar
    22     8     9   ar
    23    17    12   ar
    24     9     1   ar
    25     9     4   ar
@<TRIPOS>MOLECULE
*****
 23 25 0 0 0
SMALL
GASTEIGER

@<TRIPOS>ATOM
      1 C          63.4253   87.0602   12.9441 C.ar    1  UNL1       -0.0143
      2 C          63.6226   88.5314   13.1601 C.ar    1  UNL1        0.0051
      3 S          62.9340   89.2601   12.0444 S.2     1  UNL1       -0.0915
      4 C          62.3111   88.2393   11.1389 C.ar    1  UNL1        0.0288
      5 C          61.5066   88.3722    9.8799 C.ar    1  UNL1        0.0065
      6 C          61.0058   87.1454    9.1769 C.ar    1  UNL1        0.0005
      7 C          61.3095   85.7858    9.7330 C.ar    1  UNL1        0.0000
      8 C          62.1139   85.6529   10.9920 C.ar    1  UNL1        0.0002
      9 C          62.6147   86.8796   11.6949 C.ar    1  UNL1        0.0025
     10 C          64.7413   86.2975   15.0505 C.3     1  UNL1        0.0111
     11 C          63.9470   85.9622   13.8229 C.3     1  UNL1        0.0635
     12 C          63.6745   84.5290   13.4744 C.ar    1  UNL1        0.0732
     13 N          64.4649   83.8573   12.3908 N.ar    1  UNL1       -0.2470
     14 C          64.1924   82.4241   12.0422 C.ar    1  UNL1        0.0985
     15 C          63.1294   81.6625   12.7772 C.ar    1  UNL1        0.0215
     16 C          62.3390   82.3342   13.8607 C.ar    1  UNL1        0.0142
     17 C          62.6115   83.7674   14.2093 C.ar    1  UNL1        0.0715
     18 CL         61.8210   84.4390   15.2928 Cl      1  UNL1       -0.0810
     19 C          64.3762   89.1629   14.2929 C.3     1  UNL1        0.0499
     20 C          64.0975   90.5855   14.6783 C.3     1  UNL1        0.0774
     21 N          65.1010   91.6567   14.3691 N.3     1  UNL1       -0.2700
     22 C          65.2995   92.1125   12.9539 C.3     1  UNL1        0.0897
     23 C          65.9059   92.2721   15.4751 C.3     1  UNL1        0.0897
@<TRIPOS>BOND
     1    11    10    1
     2    11    12    1
     3    12    13   ar
     4    13    14   ar
     5    14    15   ar
     6    15    16   ar
     7    16    17   ar
     8    17    18    1
     9    11     1    1
    10     1     2   ar
    11     2    19    1
    12    19    20    1
    13    20    21    1
    14    21    22    1
    15    21    23    1
    16     2     3   ar
    17     3     4   ar
    18     4     5   ar
    19     5     6   ar
    20     6     7   ar
    21     7     8   ar
    22     8     9   ar
    23    17    12   ar
    24     9     1   ar
    25     9     4   ar
@<TRIPOS>MOLECULE
*****
 23 25 0 0 0
SMALL
GASTEIGER

@<TRIPOS>ATOM
      1 C          63.3927   90.0804   12.8170 C.ar    1  UNL1       -0.0143
      2 C          64.0036   89.7721   14.1518 C.ar    1  UNL1        0.0051
      3 S          65.2103   90.6467   14.3224 S.2     1  UNL1       -0.0915
      4 C          65.3451   91.4955   13.0930 C.ar    1  UNL1        0.0288
      5 C          66.3456   92.5419   12.7005 C.ar    1  UNL1        0.0065
      6 C          66.2228   93.2382   11.3777 C.ar    1  UNL1        0.0005
      7 C          65.0994   92.8882   10.4473 C.ar    1  UNL1        0.0000
      8 C          64.0989   91.8419   10.8398 C.ar    1  UNL1        0.0002
      9 C          64.2217   91.1455   12.1626 C.ar    1  UNL1        0.0025
     10 C          60.8265   90.0858   12.4109 C.3     1  UNL1        0.0111
     11 C          62.1677   89.4366   12.2382 C.3     1  UNL1        0.0635
     12 C          62.2839   88.1438   11.4866 C.ar    1  UNL1        0.0732
     13 N          62.6782   86.8894   12.2085 N.ar    1  UNL1       -0.2470
     14 C          62.7944   85.5965   11.4569 C.ar    1  UNL1        0.0985
     15 C          62.5162   85.5579    9.9834 C.ar    1  UNL1        0.0215
     16 C          62.1218   86.8122    9.2616 C.ar    1  UNL1        0.0142
     17 C          62.0057   88.1052   10.0131 C.ar    1  UNL1        0.0715
     18 CL         61.6113   89.3595    9.2912 Cl      1  UNL1       -0.0810
     19 C          63.4969   88.7659   15.1421 C.3     1  UNL1        0.0499
     20 C          64.1737   87.4335   15.2708 C.3     1  UNL1        0.0774
     21 N          63.4896   86.3114   15.9938 N.3     1  UNL1       -0.2700
     22 C          62.8368   86.5620   17.3209 C.3     1  UNL1        0.0897
     23 C          63.4583   84.9388   15.3898 C.3     1  UNL1        0.0897
@<TRIPOS>BOND
     1    11    10    1
     2    11    12    1
     3    12    13   ar
     4    13    14   ar
     5    14    15   ar
     6    15    16   ar
     7    16    17   ar
     8    17    18    1
     9    11     1    1
    10     1     2   ar
    11     2    19    1
    12    19    20    1
    13    20    21    1
    14    21    22    1
    15    21    23    1
    16     2     3   ar
    17     3     4   ar
    18     4     5   ar
    19     5     6   ar
    20     6     7   ar
    21     7     8   ar
    22     8     9   ar
    23    17    12   ar
    24     9     1   ar
    25     9     4   ar
@<TRIPOS>MOLECULE
*****
 23 25 0 0 0
SMALL
GASTEIGER

@<TRIPOS>ATOM
      1 C          62.9504   86.7421   12.2463 C.ar    1  UNL1       -0.0143
      2 C          63.7018   87.5433   13.2678 C.ar    1  UNL1        0.0051
      3 S          64.2814   86.5896   14.2701 S.2     1  UNL1       -0.0915
      4 C          63.8882   85.1990   13.8680 C.ar    1  UNL1        0.0288
      5 C          64.1730   83.8591   14.4792 C.ar    1  UNL1        0.0065
      6 C          63.6352   82.6135   13.8396 C.ar    1  UNL1        0.0005
      7 C          62.8126   82.7077   12.5889 C.ar    1  UNL1        0.0000
      8 C          62.5278   84.0476   11.9776 C.ar    1  UNL1        0.0002
      9 C          63.0656   85.2932   12.6172 C.ar    1  UNL1        0.0025
     10 C          62.4725   86.7379    9.6925 C.3     1  UNL1        0.0111
     11 C          62.2132   87.2930   11.0618 C.3     1  UNL1        0.0635
     12 C          61.2168   88.3988   11.2464 C.ar    1  UNL1        0.0732
     13 N          59.9169   88.1283   11.9445 N.ar    1  UNL1       -0.2470
     14 C          58.9204   89.2341   12.1292 C.ar    1  UNL1        0.0985
     15 C          59.2237   90.6105   11.6157 C.ar    1  UNL1        0.0215
     16 C          60.5235   90.8810   10.9176 C.ar    1  UNL1        0.0142
     17 C          61.5200   89.7752   10.7330 C.ar    1  UNL1        0.0715
     18 CL         62.8198   90.0457   10.0349 Cl      1  UNL1       -0.0810
     19 C          63.8479   89.0361   13.2842 C.3     1  UNL1        0.0499
     20 C          62.9826   89.8645   14.1870 C.3     1  UNL1        0.0774
     21 N          63.4121   90.1324   15.5990 N.3     1  UNL1       -0.2700
     22 C          63.0651   89.1587   16.6860 C.3     1  UNL1        0.0897
     23 C          64.1886   91.3739   15.9240 C.3     1  UNL1        0.0897
@<TRIPOS>BOND
     1    11    10    1
     2    11    12    1
     3    12    13   ar
     4    13    14   ar
     5    14    15   ar
     6    15    16   ar
     7    16    17   ar
     8    17    18    1
     9    11     1    1
    10     1     2   ar
    11     2    19    1
    12    19    20    1
    13    20    21    1
    14    21    22    1
    15    21    23    1
    16     2     3   ar
    17     3     4   ar
    18     4     5   ar
    19     5     6   ar
    20     6     7   ar
    21     7     8   ar
    22     8     9   ar
    23    17    12   ar
    24     9     1   ar
    25     9     4   ar
@<TRIPOS>MOLECULE
*****
 23 25 0 0 0
SMALL
GASTEIGER

@<TRIPOS>ATOM
      1 C          63.8291   85.1248   13.4164 C.ar    1  UNL1       -0.0143
      2 C          63.0670   85.7804   12.3031 C.ar    1  UNL1        0.0051
      3 S          62.3602   84.7066   11.5302 S.2     1  UNL1       -0.0915
      4 C          62.6855   83.3874   12.1658 C.ar    1  UNL1        0.0288
      5 C          62.2723   81.9842   11.8337 C.ar    1  UNL1        0.0065
      6 C          62.7670   80.8396   12.6673 C.ar    1  UNL1        0.0005
      7 C          63.6748   81.0981   13.8331 C.ar    1  UNL1        0.0000
      8 C          64.0880   82.5012   14.1652 C.ar    1  UNL1        0.0002
      9 C          63.5933   83.6459   13.3316 C.ar    1  UNL1        0.0025
     10 C          66.0433   85.2981   14.7646 C.3     1  UNL1        0.0111
     11 C          64.6780   85.8252   14.4356 C.3     1  UNL1        0.0635
     12 C          64.1617   87.0527   15.1259 C.ar    1  UNL1        0.0732
     13 N          64.4116   88.4078   14.5330 N.ar    1  UNL1       -0.2470
     14 C          63.8953   89.6354   15.2233 C.ar    1  UNL1        0.0985
     15 C          63.1291   89.5079   16.5066 C.ar    1  UNL1        0.0215
     16 C          62.8792   88.1529   17.0995 C.ar    1  UNL1        0.0142
     17 C          63.3955   86.9254   16.4092 C.ar    1  UNL1        0.0715
     18 CL         63.1456   85.5704   17.0022 Cl      1  UNL1       -0.0810
     19 C          63.0199   87.2514   12.0136 C.3     1  UNL1        0.0499
     20 C          61.8864   87.8226   11.2143 C.3     1  UNL1        0.0774
     21 N          61.3180   89.1640   11.5714 N.3     1  UNL1       -0.2700
     22 C          62.2298   90.3421   11.7477 C.3     1  UNL1        0.0897
     23 C          59.8380   89.3274   11.7522 C.3     1  UNL1        0.0897
@<TRIPOS>BOND
     1    11    10    1
     2    11    12    1
     3    12    13   ar
     4    13    14   ar
     5    14    15   ar
     6    15    16   ar
     7    16    17   ar
     8    17    18    1
     9    11     1    1
    10     1     2   ar
    11     2    19    1
    12    19    20    1
    13    20    21    1
    14    21    22    1
    15    21    23    1
    16     2     3   ar
    17     3     4   ar
    18     4     5   ar
    19     5     6   ar
    20     6     7   ar
    21     7     8   ar
    22     8     9   ar
    23    17    12   ar
    24     9     1   ar
    25     9     4   ar
@<TRIPOS>MOLECULE
*****
 23 25 0 0 0
SMALL
GASTEIGER

@<TRIPOS>ATOM
      1 C          63.2935   88.8248   12.3552 C.ar    1  UNL1       -0.0143
      2 C          63.8473   89.7526   13.3957 C.ar    1  UNL1        0.0051
      3 S          64.3129   88.9231   14.5555 S.2     1  UNL1       -0.0915
      4 C          64.0469   87.4828   14.2319 C.ar    1  UNL1        0.0288
      5 C          64.2969   86.2188   14.9998 C.ar    1  UNL1        0.0065
      6 C          63.9170   84.8940   14.4077 C.ar    1  UNL1        0.0005
      7 C          63.2870   84.8333   13.0478 C.ar    1  UNL1        0.0000
      8 C          63.0369   86.0973   12.2799 C.ar    1  UNL1        0.0002
      9 C          63.4169   87.4221   12.8720 C.ar    1  UNL1        0.0025
     10 C          62.9644   90.6080   10.4945 C.3     1  UNL1        0.0111
     11 C          62.7175   89.2289   11.0304 C.3     1  UNL1        0.0635
     12 C          61.8947   88.2540   10.2416 C.ar    1  UNL1        0.0732
     13 N          62.5669   87.2691    9.3314 N.ar    1  UNL1       -0.2470
     14 C          61.7441   86.2942    8.5425 C.ar    1  UNL1        0.0985
     15 C          60.2490   86.3040    8.6637 C.ar    1  UNL1        0.0215
     16 C          59.5768   87.2888    9.5739 C.ar    1  UNL1        0.0142
     17 C          60.3996   88.2638   10.3628 C.ar    1  UNL1        0.0715
     18 CL         59.7274   89.2485   11.2729 Cl      1  UNL1       -0.0810
     19 C          63.9223   91.2472   13.2941 C.3     1  UNL1        0.0499
     20 C          65.2477   91.9196   13.0910 C.3     1  UNL1        0.0774
     21 N          65.8582   92.7244   14.1998 N.3     1  UNL1       -0.2700
     22 C          65.7023   92.2788   15.6236 C.3     1  UNL1        0.0897
     23 C          66.6245   93.9748   13.8848 C.3     1  UNL1        0.0897
@<TRIPOS>BOND
     1    11    10    1
     2    11    12    1
     3    12    13   ar
     4    13    14   ar
     5    14    15   ar
     6    15    16   ar
     7    16    17   ar
     8    17    18    1
     9    11     1    1
    10     1     2   ar
    11     2    19    1
    12    19    20    1
    13    20    21    1
    14    21    22    1
    15    21    23    1
    16     2     3   ar
    17     3     4   ar
    18     4     5   ar
    19     5     6   ar
    20     6     7   ar
    21     7     8   ar
    22     8     9   ar
    23    17    12   ar
    24     9     1   ar
    25     9     4   ar
@<TRIPOS>MOLECULE
*****
 23 25 0 0 0
SMALL
GASTEIGER

@<TRIPOS>ATOM
      1 C          62.1451   86.5031   10.4027 C.ar    1  UNL1       -0.0143
      2 C          62.4481   87.7113   11.2385 C.ar    1  UNL1        0.0051
      3 S          61.6086   88.8469   10.7329 S.2     1  UNL1       -0.0915
      4 C          60.7868   88.3406    9.5847 C.ar    1  UNL1        0.0288
      5 C          59.7795   89.0115    8.6987 C.ar    1  UNL1        0.0065
      6 C          59.1037   88.2337    7.6086 C.ar    1  UNL1        0.0005
      7 C          59.4352   86.7852    7.4045 C.ar    1  UNL1        0.0000
      8 C          60.4426   86.1143    8.2906 C.ar    1  UNL1        0.0002
      9 C          61.1184   86.8920    9.3807 C.ar    1  UNL1        0.0025
     10 C          63.2295   84.3879    9.3537 C.3     1  UNL1        0.0111
     11 C          62.7607   85.1444   10.5612 C.3     1  UNL1        0.0635
     12 C          62.9076   84.5422   11.9271 C.ar    1  UNL1        0.0732
     13 N          62.0402   85.0190   13.0542 N.ar    1  UNL1       -0.2470
     14 C          62.1870   84.4168   14.4202 C.ar    1  UNL1        0.0985
     15 C          63.2014   83.3378   14.6590 C.ar    1  UNL1        0.0215
     16 C          64.0687   82.8611   13.5319 C.ar    1  UNL1        0.0142
     17 C          63.9219   83.4633   12.1660 C.ar    1  UNL1        0.0715
     18 CL         64.7893   82.9865   11.0389 Cl      1  UNL1       -0.0810
     19 C          63.4199   87.7730   12.3794 C.3     1  UNL1        0.0499
     20 C          63.5859   89.0460   13.1552 C.3     1  UNL1        0.0774
     21 N          63.8161   88.9969   14.6366 N.3     1  UNL1       -0.2700
     22 C          64.1010   87.6863   15.3084 C.3     1  UNL1        0.0897
     23 C          63.7615   90.2584   15.4463 C.3     1  UNL1        0.0897
@<TRIPOS>BOND
     1    11    10    1
     2    11    12    1
     3    12    13   ar
     4    13    14   ar
     5    14    15   ar
     6    15    16   ar
     7    16    17   ar
     8    17    18    1
     9    11     1    1
    10     1     2   ar
    11     2    19    1
    12    19    20    1
    13    20    21    1
    14    21    22    1
    15    21    23    1
    16     2     3   ar
    17     3     4   ar
    18     4     5   ar
    19     5     6   ar
    20     6     7   ar
    21     7     8   ar
    22     8     9   ar
    23    17    12   ar
    24     9     1   ar
    25     9     4   ar
@<TRIPOS>MOLECULE
*****
 23 25 0 0 0
SMALL
GASTEIGER

@<TRIPOS>ATOM
      1 C          63.0210   88.2799   12.1753 C.ar    1  UNL1       -0.0143
      2 C          62.2273   87.6592   11.0640 C.ar    1  UNL1        0.0051
      3 S          62.2524   86.1712   11.2516 S.2     1  UNL1       -0.0915
      4 C          63.0615   85.8722   12.4787 C.ar    1  UNL1        0.0288
      5 C          63.4271   84.5817   13.1501 C.ar    1  UNL1        0.0065
      6 C          64.2677   84.5944   14.3923 C.ar    1  UNL1        0.0005
      7 C          64.7427   85.8976   14.9632 C.ar    1  UNL1        0.0000
      8 C          64.3771   87.1882   14.2919 C.ar    1  UNL1        0.0002
      9 C          63.5365   87.1755   13.0496 C.ar    1  UNL1        0.0025
     10 C          63.1626   90.6892   11.2131 C.3     1  UNL1        0.0111
     11 C          63.2575   89.7473   12.3768 C.3     1  UNL1        0.0635
     12 C          63.5890   90.2731   13.7419 C.ar    1  UNL1        0.0732
     13 N          62.7305   89.9059   14.9159 N.ar    1  UNL1       -0.2470
     14 C          63.0620   90.4316   16.2811 C.ar    1  UNL1        0.0985
     15 C          64.2520   91.3246   16.4723 C.ar    1  UNL1        0.0215
     16 C          65.1105   91.6917   15.2984 C.ar    1  UNL1        0.0142
     17 C          64.7790   91.1660   13.9332 C.ar    1  UNL1        0.0715
     18 CL         65.6376   91.5332   12.7593 Cl      1  UNL1       -0.0810
     19 C          61.5309   88.3971    9.9592 C.3     1  UNL1        0.0499
     20 C          60.1060   88.0718    9.6219 C.3     1  UNL1        0.0774
     21 N          59.7323   87.7085    8.2154 N.3     1  UNL1       -0.2700
     22 C          59.2961   88.7757    7.2557 C.3     1  UNL1        0.0897
     23 C          59.7949   86.2780    7.7685 C.3     1  UNL1        0.0897
@<TRIPOS>BOND
     1    11    10    1
     2    11    12    1
     3    12    13   ar
     4    13    14   ar
     5    14    15   ar
     6    15    16   ar
     7    16    17   ar
     8    17    18    1
     9    11     1    1
    10     1     2   ar
    11     2    19    1
    12    19    20    1
    13    20    21    1
    14    21    22    1
    15    21    23    1
    16     2     3   ar
    17     3     4   ar
    18     4     5   ar
    19     5     6   ar
    20     6     7   ar
    21     7     8   ar
    22     8     9   ar
    23    17    12   ar
    24     9     1   ar
    25     9     4   ar
@<TRIPOS>MOLECULE
*****
 23 25 0 0 0
SMALL
GASTEIGER

@<TRIPOS>ATOM
      1 C          62.9984   86.7962   12.3107 C.ar    1  UNL1       -0.0143
      2 C          63.7928   86.9793   13.5698 C.ar    1  UNL1        0.0051
      3 S          64.0704   88.4442   13.7338 S.2     1  UNL1       -0.0915
      4 C          63.4475   89.1665   12.5760 C.ar    1  UNL1        0.0288
      5 C          63.3981   90.6200   12.2091 C.ar    1  UNL1        0.0065
      6 C          62.6861   91.0550   10.9626 C.ar    1  UNL1        0.0005
      7 C          62.0236   90.0365   10.0830 C.ar    1  UNL1        0.0000
      8 C          62.0730   88.5830   10.4500 C.ar    1  UNL1        0.0002
      9 C          62.7850   88.1480   11.6965 C.ar    1  UNL1        0.0025
     10 C          61.6964   85.4657   10.4982 C.3     1  UNL1        0.0111
     11 C          62.5041   85.4906   11.7621 C.3     1  UNL1        0.0635
     12 C          62.8173   84.2098   12.4771 C.ar    1  UNL1        0.0732
     13 N          62.1254   83.8825   13.7672 N.ar    1  UNL1       -0.2470
     14 C          62.4386   82.6017   14.4824 C.ar    1  UNL1        0.0985
     15 C          63.4438   81.6481   13.9074 C.ar    1  UNL1        0.0215
     16 C          64.1356   81.9754   12.6174 C.ar    1  UNL1        0.0142
     17 C          63.8224   83.2562   11.9022 C.ar    1  UNL1        0.0715
     18 CL         64.5143   83.5835   10.6122 Cl      1  UNL1       -0.0810
     19 C          64.2324   85.8889   14.5014 C.3     1  UNL1        0.0499
     20 C          64.2850   86.1408   15.9791 C.3     1  UNL1        0.0774
     21 N          63.0758   86.6676   16.6936 N.3     1  UNL1       -0.2700
     22 C          61.9041   85.7667   16.9494 C.3     1  UNL1        0.0897
     23 C          63.0385   88.0952   17.1524 C.3     1  UNL1        0.0897
@<TRIPOS>BOND
     1    11    10    1
     2    11    12    1
     3    12    13   ar
     4    13    14   ar
     5    14    15   ar
     6    15    16   ar
     7    16    17   ar
     8    17    18    1
     9    11     1    1
    10     1     2   ar
    11     2    19    1
    12    19    20    1
    13    20    21    1
    14    21    22    1
    15    21    23    1
    16     2     3   ar
    17     3     4   ar
    18     4     5   ar
    19     5     6   ar
    20     6     7   ar
    21     7     8   ar
    22     8     9   ar
    23    17    12   ar
    24     9     1   ar
    25     9     4   ar
