@<TRIPOS>MOLECULE
*****
 30 32 0 0 0
SMALL
GASTEIGER

@<TRIPOS>ATOM
      1 C          63.9648   90.0687   13.3797 C.3     1  UNL1        0.1070
      2 C          63.2015   90.5047   12.1643 C.3     1  UNL1        0.0633
      3 C          62.6525   89.2785   11.4971 C.3     1  UNL1        0.1888
      4 O          61.8248   89.2509   10.2464 O.3     1  UNL1       -0.3757
      5 C          63.0766   88.0846   12.3002 C.2     1  UNL1        0.2530
      6 O          62.7475   86.6537   11.9937 O.2     1  UNL1       -0.2722
      7 N          63.8876   88.5731   13.4637 N.am    1  UNL1       -0.2711
      8 H          61.5994   88.3331   10.0281 H       1  UNL1        0.2110
      9 C          65.9133   91.7044   13.9071 C.ar    1  UNL1        0.1392
     10 C          66.6282   92.6058   14.8695 C.ar    1  UNL1        0.0368
     11 C          66.1096   92.7729   16.2671 C.ar    1  UNL1        0.0062
     12 C          64.8761   92.0387   16.7022 C.ar    1  UNL1        0.0368
     13 C          64.1612   91.1373   15.7397 C.ar    1  UNL1        0.1392
     14 C          64.6798   90.9702   14.3422 C.ar    1  UNL1        0.0637
     15 C          66.3441   92.6750   11.5359 C.3     1  UNL1        0.2525
     16 O          66.4318   91.5373   12.5095 O.3     1  UNL1       -0.4716
     17 O          62.9276   90.4030   16.1748 O.3     1  UNL1       -0.4716
     18 C          63.0487   89.1584   17.0032 C.3     1  UNL1        0.2525
     19 C          64.5119   87.7162   14.5249 C.3     1  UNL1        0.1204
     20 C          64.1479   86.2647   14.6272 C.ar    1  UNL1       -0.0021
     21 C          62.9684   85.8436   15.4527 C.ar    1  UNL1        0.0005
     22 C          62.6045   84.3920   15.5549 C.ar    1  UNL1        0.0369
     23 C          63.4201   83.3616   14.8317 C.ar    1  UNL1        0.1468
     24 C          64.5996   83.7827   14.0062 C.ar    1  UNL1        0.0369
     25 C          64.9635   85.2343   13.9040 C.ar    1  UNL1        0.0005
     26 O          63.0560   81.9099   14.9340 O.3     1  UNL1       -0.4045
     27 C          62.7123   81.1338   13.6973 C.3     1  UNL1        0.5753
     28 F          62.3686   80.3577   12.4606 F       1  UNL1       -0.1328
     29 F          61.2730   81.5274   13.8504 F       1  UNL1       -0.1328
     30 F          64.1517   80.7403   13.5443 F       1  UNL1       -0.1328
@<TRIPOS>BOND
     1    15    16    1
     2    16     9    1
     3     9    10   ar
     4    10    11   ar
     5    11    12   ar
     6    12    13   ar
     7    13    17    1
     8    17    18    1
     9    13    14   ar
    10     1    14    1
    11     1     2    1
    12     2     3    1
    13     3     4    1
    14     3     5    1
    15     5     6    2
    16     5     7   am
    17     7    19    1
    18    19    20    1
    19    20    21   ar
    20    21    22   ar
    21    22    23   ar
    22    23    26    1
    23    26    27    1
    24    27    28    1
    25    27    29    1
    26    27    30    1
    27    23    24   ar
    28    24    25   ar
    29    14     9   ar
    30     7     1    1
    31    25    20   ar
    32     4     8    1
@<TRIPOS>MOLECULE
*****
 30 32 0 0 0
SMALL
GASTEIGER

@<TRIPOS>ATOM
      1 C          63.9815   90.0714   13.3949 C.3     1  UNL1        0.1070
      2 C          63.2223   90.5085   12.1773 C.3     1  UNL1        0.0633
      3 C          62.6690   89.2836   11.5115 C.3     1  UNL1        0.1888
      4 O          61.8434   89.2574   10.2594 O.3     1  UNL1       -0.3757
      5 C          63.0862   88.0893   12.3177 C.2     1  UNL1        0.2530
      6 O          62.7510   86.6593   12.0132 O.2     1  UNL1       -0.2722
      7 N          63.8973   88.5763   13.4817 N.am    1  UNL1       -0.2711
      8 H          61.6142   88.3402   10.0424 H       1  UNL1        0.2110
      9 C          64.1762   91.1468   15.7520 C.ar    1  UNL1        0.1392
     10 C          64.8936   92.0468   16.7139 C.ar    1  UNL1        0.0368
     11 C          66.1336   92.7713   16.2809 C.ar    1  UNL1        0.0062
     12 C          66.6562   92.5958   14.8859 C.ar    1  UNL1        0.0368
     13 C          65.9388   91.6959   13.9239 C.ar    1  UNL1        0.1392
     14 C          64.6988   90.9714   14.3570 C.ar    1  UNL1        0.0637
     15 C          63.0462   89.1741   17.0095 C.3     1  UNL1        0.2525
     16 O          62.9362   90.4223   16.1850 O.3     1  UNL1       -0.4716
     17 O          66.4614   91.5204   12.5289 O.3     1  UNL1       -0.4716
     18 C          66.4676   92.6811   11.5788 C.3     1  UNL1        0.2525
     19 C          64.5157   87.7186   14.5456 C.3     1  UNL1        0.1204
     20 C          64.1527   86.2665   14.6435 C.ar    1  UNL1       -0.0021
     21 C          64.9684   85.2388   13.9167 C.ar    1  UNL1        0.0005
     22 C          64.6053   83.7867   14.0147 C.ar    1  UNL1        0.0369
     23 C          63.4265   83.3624   14.8396 C.ar    1  UNL1        0.1468
     24 C          62.6108   84.3902   15.5664 C.ar    1  UNL1        0.0369
     25 C          62.9739   85.8422   15.4684 C.ar    1  UNL1        0.0005
     26 O          63.0634   81.9102   14.9375 O.3     1  UNL1       -0.4045
     27 C          62.7297   81.1352   13.6974 C.3     1  UNL1        0.5753
     28 F          62.3959   80.3602   12.4572 F       1  UNL1       -0.1328
     29 F          61.2916   81.5400   13.8314 F       1  UNL1       -0.1328
     30 F          64.1679   80.7304   13.5634 F       1  UNL1       -0.1328
@<TRIPOS>BOND
     1    15    16    1
     2    16     9    1
     3     9    10   ar
     4    10    11   ar
     5    11    12   ar
     6    12    13   ar
     7    13    17    1
     8    17    18    1
     9    13    14   ar
    10     1    14    1
    11     1     2    1
    12     2     3    1
    13     3     4    1
    14     3     5    1
    15     5     6    2
    16     5     7   am
    17     7    19    1
    18    19    20    1
    19    20    21   ar
    20    21    22   ar
    21    22    23   ar
    22    23    26    1
    23    26    27    1
    24    27    28    1
    25    27    29    1
    26    27    30    1
    27    23    24   ar
    28    24    25   ar
    29    14     9   ar
    30     7     1    1
    31    25    20   ar
    32     4     8    1
@<TRIPOS>MOLECULE
*****
 30 32 0 0 0
SMALL
GASTEIGER

@<TRIPOS>ATOM
      1 C          60.6962   87.8238   10.8055 C.3     1  UNL1        0.1070
      2 C          59.4383   87.6293   11.5990 C.3     1  UNL1        0.0633
      3 C          58.9433   88.9807   12.0217 C.3     1  UNL1        0.1888
      4 O          57.7123   89.2543   12.8341 O.3     1  UNL1       -0.3757
      5 C          59.8953   90.0105   11.4894 C.2     1  UNL1        0.2530
      6 O          59.7836   91.4946   11.6761 O.2     1  UNL1       -0.2722
      7 N          60.9787   89.2955   10.7378 N.am    1  UNL1       -0.2711
      8 H          57.6192   90.2105   12.9679 H       1  UNL1        0.2110
      9 C          62.4284   85.9026   11.0475 C.ar    1  UNL1        0.1392
     10 C          63.2582   84.8163   10.4301 C.ar    1  UNL1        0.0368
     11 C          63.1857   84.5648    8.9531 C.ar    1  UNL1        0.0062
     12 C          62.2834   85.3996    8.0935 C.ar    1  UNL1        0.0368
     13 C          61.4536   86.4860    8.7110 C.ar    1  UNL1        0.1392
     14 C          61.5261   86.7375   10.1880 C.ar    1  UNL1        0.0637
     15 C          63.4884   85.4011   13.3659 C.3     1  UNL1        0.2525
     16 O          62.5010   86.1541   12.5245 O.3     1  UNL1       -0.4716
     17 O          60.5512   87.3208    7.8515 O.3     1  UNL1       -0.4716
     18 C          59.1155   86.9271    7.6674 C.3     1  UNL1        0.2525
     19 C          62.1405   89.9391   10.0407 C.3     1  UNL1        0.1204
     20 C          63.1727   90.6836   10.8346 C.ar    1  UNL1       -0.0021
     21 C          63.9822   91.7661   10.1842 C.ar    1  UNL1        0.0005
     22 C          65.0143   92.5106   10.9782 C.ar    1  UNL1        0.0369
     23 C          65.2370   92.1726   12.4225 C.ar    1  UNL1        0.1468
     24 C          64.4275   91.0901   13.0729 C.ar    1  UNL1        0.0369
     25 C          63.3954   90.3457   12.2790 C.ar    1  UNL1        0.0005
     26 O          66.2692   92.9172   13.2164 O.3     1  UNL1       -0.4045
     27 C          67.0750   92.2000   14.2587 C.3     1  UNL1        0.5753
     28 F          67.8807   91.4828   15.3010 F       1  UNL1       -0.1328
     29 F          66.2177   92.7992   15.3338 F       1  UNL1       -0.1328
     30 F          67.9323   91.6007   13.1835 F       1  UNL1       -0.1328
@<TRIPOS>BOND
     1    15    16    1
     2    16     9    1
     3     9    10   ar
     4    10    11   ar
     5    11    12   ar
     6    12    13   ar
     7    13    17    1
     8    17    18    1
     9    13    14   ar
    10     1    14    1
    11     1     2    1
    12     2     3    1
    13     3     4    1
    14     3     5    1
    15     5     6    2
    16     5     7   am
    17     7    19    1
    18    19    20    1
    19    20    21   ar
    20    21    22   ar
    21    22    23   ar
    22    23    26    1
    23    26    27    1
    24    27    28    1
    25    27    29    1
    26    27    30    1
    27    23    24   ar
    28    24    25   ar
    29    14     9   ar
    30     7     1    1
    31    25    20   ar
    32     4     8    1
@<TRIPOS>MOLECULE
*****
 30 32 0 0 0
SMALL
GASTEIGER

@<TRIPOS>ATOM
      1 C          60.6816   87.8056   10.8002 C.3     1  UNL1        0.1070
      2 C          59.4222   87.6061   11.5901 C.3     1  UNL1        0.0633
      3 C          58.9219   88.9553   12.0136 C.3     1  UNL1        0.1888
      4 O          57.6880   89.2239   12.8232 O.3     1  UNL1       -0.3757
      5 C          59.8722   89.9888   11.4855 C.2     1  UNL1        0.2530
      6 O          59.7555   91.4723   11.6741 O.2     1  UNL1       -0.2722
      7 N          60.9597   89.2782   10.7355 N.am    1  UNL1       -0.2711
      8 H          57.5917   90.1796   12.9583 H       1  UNL1        0.2110
      9 C          61.4500   86.4747    8.7054 C.ar    1  UNL1        0.1392
     10 C          62.2848   85.3918    8.0885 C.ar    1  UNL1        0.0368
     11 C          63.1859   84.5571    8.9494 C.ar    1  UNL1        0.0062
     12 C          63.2522   84.8052   10.4272 C.ar    1  UNL1        0.0368
     13 C          62.4175   85.8880   11.0441 C.ar    1  UNL1        0.1392
     14 C          61.5164   86.7228   10.1832 C.ar    1  UNL1        0.0637
     15 C          59.1030   86.9403    7.6932 C.3     1  UNL1        0.2525
     16 O          60.5489   87.3094    7.8445 O.3     1  UNL1       -0.4716
     17 O          62.4838   86.1361   12.5220 O.3     1  UNL1       -0.4716
     18 C          63.4939   85.4097   13.3599 C.3     1  UNL1        0.2525
     19 C          62.1215   89.9265   10.0426 C.3     1  UNL1        0.1204
     20 C          63.1501   90.6716   10.8405 C.ar    1  UNL1       -0.0021
     21 C          63.3666   90.3347   12.2860 C.ar    1  UNL1        0.0005
     22 C          64.3952   91.0798   13.0839 C.ar    1  UNL1        0.0369
     23 C          65.2074   92.1619   12.4362 C.ar    1  UNL1        0.1468
     24 C          64.9909   92.4988   10.9906 C.ar    1  UNL1        0.0369
     25 C          63.9622   91.7537   10.1928 C.ar    1  UNL1        0.0005
     26 O          66.2361   92.9071   13.2341 O.3     1  UNL1       -0.4045
     27 C          67.0580   92.1841   14.2597 C.3     1  UNL1        0.5753
     28 F          67.8799   91.4612   15.2852 F       1  UNL1       -0.1328
     29 F          66.2241   92.7854   15.3519 F       1  UNL1       -0.1328
     30 F          67.8919   91.5828   13.1674 F       1  UNL1       -0.1328
@<TRIPOS>BOND
     1    15    16    1
     2    16     9    1
     3     9    10   ar
     4    10    11   ar
     5    11    12   ar
     6    12    13   ar
     7    13    17    1
     8    17    18    1
     9    13    14   ar
    10     1    14    1
    11     1     2    1
    12     2     3    1
    13     3     4    1
    14     3     5    1
    15     5     6    2
    16     5     7   am
    17     7    19    1
    18    19    20    1
    19    20    21   ar
    20    21    22   ar
    21    22    23   ar
    22    23    26    1
    23    26    27    1
    24    27    28    1
    25    27    29    1
    26    27    30    1
    27    23    24   ar
    28    24    25   ar
    29    14     9   ar
    30     7     1    1
    31    25    20   ar
    32     4     8    1
@<TRIPOS>MOLECULE
*****
 30 32 0 0 0
SMALL
GASTEIGER

@<TRIPOS>ATOM
      1 C          61.5263   86.3130   10.0631 C.3     1  UNL1        0.1070
      2 C          60.4530   86.3287    9.0153 C.3     1  UNL1        0.0633
      3 C          59.7154   87.6300    9.1268 C.3     1  UNL1        0.1888
      4 O          58.5627   88.0662    8.2717 O.3     1  UNL1       -0.3757
      5 C          60.3328   88.4186   10.2435 C.2     1  UNL1        0.2530
      6 O          59.9059   89.7818   10.7011 O.2     1  UNL1       -0.2722
      7 N          61.4520   87.6046   10.8221 N.am    1  UNL1       -0.2711
      8 H          58.2690   88.9477    8.5501 H       1  UNL1        0.2110
      9 C          63.3221   84.6584    9.1756 C.ar    1  UNL1        0.1392
     10 C          64.2983   83.5464    9.4213 C.ar    1  UNL1        0.0368
     11 C          64.4548   82.9767   10.8001 C.ar    1  UNL1        0.0062
     12 C          63.6352   83.5192   11.9332 C.ar    1  UNL1        0.0368
     13 C          62.6590   84.6312   11.6875 C.ar    1  UNL1        0.1392
     14 C          62.5025   85.2008   10.3087 C.ar    1  UNL1        0.0637
     15 C          62.4013   84.4681    6.7537 C.3     1  UNL1        0.2525
     16 O          63.1656   85.2280    7.7969 O.3     1  UNL1       -0.4716
     17 O          61.8393   85.1737   12.8206 O.3     1  UNL1       -0.4716
     18 C          62.1645   84.7881   14.2333 C.3     1  UNL1        0.2525
     19 C          62.3408   88.0110   11.9600 C.3     1  UNL1        0.1204
     20 C          63.0827   89.3134   11.9042 C.ar    1  UNL1       -0.0021
     21 C          63.0920   90.1176   10.6380 C.ar    1  UNL1        0.0005
     22 C          63.8339   91.4200   10.5822 C.ar    1  UNL1        0.0369
     23 C          64.5665   91.9183   11.7926 C.ar    1  UNL1        0.1468
     24 C          64.5572   91.1141   13.0588 C.ar    1  UNL1        0.0369
     25 C          63.8152   89.8117   13.1146 C.ar    1  UNL1        0.0005
     26 O          65.3085   93.2208   11.7367 O.3     1  UNL1       -0.4045
     27 C          66.1036   93.5794   10.5164 C.3     1  UNL1        0.5753
     28 F          66.8988   93.9379    9.2961 F       1  UNL1       -0.1328
     29 F          65.2693   94.8127   10.3351 F       1  UNL1       -0.1328
     30 F          66.9380   92.3460   10.6978 F       1  UNL1       -0.1328
@<TRIPOS>BOND
     1    15    16    1
     2    16     9    1
     3     9    10   ar
     4    10    11   ar
     5    11    12   ar
     6    12    13   ar
     7    13    17    1
     8    17    18    1
     9    13    14   ar
    10     1    14    1
    11     1     2    1
    12     2     3    1
    13     3     4    1
    14     3     5    1
    15     5     6    2
    16     5     7   am
    17     7    19    1
    18    19    20    1
    19    20    21   ar
    20    21    22   ar
    21    22    23   ar
    22    23    26    1
    23    26    27    1
    24    27    28    1
    25    27    29    1
    26    27    30    1
    27    23    24   ar
    28    24    25   ar
    29    14     9   ar
    30     7     1    1
    31    25    20   ar
    32     4     8    1
@<TRIPOS>MOLECULE
*****
 30 32 0 0 0
SMALL
GASTEIGER

@<TRIPOS>ATOM
      1 C          62.3335   86.6499   11.6765 C.3     1  UNL1        0.1070
      2 C          62.6342   85.2801   12.2088 C.3     1  UNL1        0.0633
      3 C          63.5691   85.4299   13.3722 C.3     1  UNL1        0.1888
      4 O          64.1286   84.3134   14.2030 O.3     1  UNL1       -0.3757
      5 C          63.8463   86.8922   13.5588 C.2     1  UNL1        0.2530
      6 O          64.7317   87.4948   14.6091 O.2     1  UNL1       -0.2722
      7 N          63.0827   87.6462   12.5108 N.am    1  UNL1       -0.2711
      8 H          64.7060   84.6801   14.8908 H       1  UNL1        0.2110
      9 C          61.7580   86.4219    9.1532 C.ar    1  UNL1        0.1392
     10 C          60.8650   86.7396    7.9906 C.ar    1  UNL1        0.0368
     11 C          59.6545   87.6030    8.1887 C.ar    1  UNL1        0.0062
     12 C          59.3370   88.1487    9.5494 C.ar    1  UNL1        0.0368
     13 C          60.2300   87.8310   10.7119 C.ar    1  UNL1        0.1392
     14 C          61.4405   86.9676   10.5138 C.ar    1  UNL1        0.0637
     15 C          63.0961   84.7179    7.7194 C.3     1  UNL1        0.2525
     16 O          62.9685   85.5585    8.9551 O.3     1  UNL1       -0.4716
     17 O          59.9125   88.3766   12.0727 O.3     1  UNL1       -0.4716
     18 C          59.3614   89.7645   12.2143 C.3     1  UNL1        0.2525
     19 C          63.0703   89.1351   12.3291 C.3     1  UNL1        0.1204
     20 C          63.8255   90.0133   13.2821 C.ar    1  UNL1       -0.0021
     21 C          65.0125   90.7947   12.8020 C.ar    1  UNL1        0.0005
     22 C          65.7676   91.6730   13.7551 C.ar    1  UNL1        0.0369
     23 C          65.3358   91.7697   15.1884 C.ar    1  UNL1        0.1468
     24 C          64.1489   90.9883   15.6685 C.ar    1  UNL1        0.0369
     25 C          63.3937   90.1101   14.7154 C.ar    1  UNL1        0.0005
     26 O          66.0911   92.6480   16.1415 O.3     1  UNL1       -0.4045
     27 C          67.5011   93.0543   15.8303 C.3     1  UNL1        0.5753
     28 F          68.9110   93.4606   15.5192 F       1  UNL1       -0.1328
     29 F          66.9898   94.1317   14.9204 F       1  UNL1       -0.1328
     30 F          68.0123   91.9769   16.7403 F       1  UNL1       -0.1328
@<TRIPOS>BOND
     1    15    16    1
     2    16     9    1
     3     9    10   ar
     4    10    11   ar
     5    11    12   ar
     6    12    13   ar
     7    13    17    1
     8    17    18    1
     9    13    14   ar
    10     1    14    1
    11     1     2    1
    12     2     3    1
    13     3     4    1
    14     3     5    1
    15     5     6    2
    16     5     7   am
    17     7    19    1
    18    19    20    1
    19    20    21   ar
    20    21    22   ar
    21    22    23   ar
    22    23    26    1
    23    26    27    1
    24    27    28    1
    25    27    29    1
    26    27    30    1
    27    23    24   ar
    28    24    25   ar
    29    14     9   ar
    30     7     1    1
    31    25    20   ar
    32     4     8    1
@<TRIPOS>MOLECULE
*****
 30 32 0 0 0
SMALL
GASTEIGER

@<TRIPOS>ATOM
      1 C          62.3142   86.6288   11.6682 C.3     1  UNL1        0.1070
      2 C          62.6114   85.2589   12.2020 C.3     1  UNL1        0.0633
      3 C          63.5515   85.4071   13.3614 C.3     1  UNL1        0.1888
      4 O          64.1098   84.2899   14.1923 O.3     1  UNL1       -0.3757
      5 C          63.8354   86.8686   13.5442 C.2     1  UNL1        0.2530
      6 O          64.7273   87.4696   14.5898 O.2     1  UNL1       -0.2722
      7 N          63.0707   87.6237   12.4977 N.am    1  UNL1       -0.2711
      8 H          64.6913   84.6556   14.8771 H       1  UNL1        0.2110
      9 C          60.2242   87.8346   10.7050 C.ar    1  UNL1        0.1392
     10 C          59.3279   88.1536    9.5453 C.ar    1  UNL1        0.0368
     11 C          59.6255   87.5860    8.1891 C.ar    1  UNL1        0.0062
     12 C          60.8193   86.6993    7.9926 C.ar    1  UNL1        0.0368
     13 C          61.7155   86.3803    9.1523 C.ar    1  UNL1        0.1392
     14 C          61.4179   86.9479   10.5085 C.ar    1  UNL1        0.0637
     15 C          59.3599   89.7852   12.1875 C.3     1  UNL1        0.2525
     16 O          59.9266   88.4022   12.0612 O.3     1  UNL1       -0.4716
     17 O          62.9093   85.4936    8.9558 O.3     1  UNL1       -0.4716
     18 C          63.0767   84.7344    7.6730 C.3     1  UNL1        0.2525
     19 C          63.0637   89.1122   12.3131 C.3     1  UNL1        0.1204
     20 C          63.8095   89.9906   13.2734 C.ar    1  UNL1       -0.0021
     21 C          63.3524   90.1027   14.6976 C.ar    1  UNL1        0.0005
     22 C          64.0983   90.9811   15.6578 C.ar    1  UNL1        0.0369
     23 C          65.3013   91.7474   15.1938 C.ar    1  UNL1        0.1468
     24 C          65.7585   91.6354   13.7696 C.ar    1  UNL1        0.0369
     25 C          65.0126   90.7570   12.8094 C.ar    1  UNL1        0.0005
     26 O          66.0472   92.6259   16.1541 O.3     1  UNL1       -0.4045
     27 C          67.4480   93.0606   15.8401 C.3     1  UNL1        0.5753
     28 F          68.8489   93.4953   15.5261 F       1  UNL1       -0.1328
     29 F          66.9145   94.1018   14.9014 F       1  UNL1       -0.1328
     30 F          67.9815   92.0193   16.7789 F       1  UNL1       -0.1328
@<TRIPOS>BOND
     1    15    16    1
     2    16     9    1
     3     9    10   ar
     4    10    11   ar
     5    11    12   ar
     6    12    13   ar
     7    13    17    1
     8    17    18    1
     9    13    14   ar
    10     1    14    1
    11     1     2    1
    12     2     3    1
    13     3     4    1
    14     3     5    1
    15     5     6    2
    16     5     7   am
    17     7    19    1
    18    19    20    1
    19    20    21   ar
    20    21    22   ar
    21    22    23   ar
    22    23    26    1
    23    26    27    1
    24    27    28    1
    25    27    29    1
    26    27    30    1
    27    23    24   ar
    28    24    25   ar
    29    14     9   ar
    30     7     1    1
    31    25    20   ar
    32     4     8    1
@<TRIPOS>MOLECULE
*****
 30 32 0 0 0
SMALL
GASTEIGER

@<TRIPOS>ATOM
      1 C          61.8522   86.3245   10.5776 C.3     1  UNL1        0.1070
      2 C          60.7991   86.5860    9.5420 C.3     1  UNL1        0.0633
      3 C          60.2488   87.9614    9.7775 C.3     1  UNL1        0.1888
      4 O          59.1741   88.6307    8.9730 O.3     1  UNL1       -0.3757
      5 C          60.9618   88.5500   10.9587 C.2     1  UNL1        0.2530
      6 O          60.7253   89.9112   11.5428 O.2     1  UNL1       -0.2722
      7 N          61.9528   87.5384   11.4532 N.am    1  UNL1       -0.2711
      8 H          59.0037   89.5150    9.3334 H       1  UNL1        0.2110
      9 C          63.4155   84.5312    9.5335 C.ar    1  UNL1        0.1392
     10 C          64.2258   83.2763    9.6698 C.ar    1  UNL1        0.0368
     11 C          64.2832   82.5598   10.9863 C.ar    1  UNL1        0.0062
     12 C          63.5304   83.0982   12.1667 C.ar    1  UNL1        0.0368
     13 C          62.7200   84.3531   12.0304 C.ar    1  UNL1        0.1392
     14 C          62.6626   85.0696   10.7138 C.ar    1  UNL1        0.0637
     15 C          62.5245   84.6960    7.0986 C.3     1  UNL1        0.2525
     16 O          63.3581   85.2477    8.2169 O.3     1  UNL1       -0.4716
     17 O          61.9671   84.8916   13.2108 O.3     1  UNL1       -0.4716
     18 C          62.2838   84.3976   14.5912 C.3     1  UNL1        0.2525
     19 C          62.8813   87.7103   12.6187 C.3     1  UNL1        0.1204
     20 C          63.5825   89.0190   12.8322 C.ar    1  UNL1       -0.0021
     21 C          63.5341   90.0779   11.7709 C.ar    1  UNL1        0.0005
     22 C          64.2353   91.3865   11.9845 C.ar    1  UNL1        0.0369
     23 C          64.9850   91.6363   13.2596 C.ar    1  UNL1        0.1468
     24 C          65.0333   90.5775   14.3209 C.ar    1  UNL1        0.0369
     25 C          64.3321   89.2688   14.1073 C.ar    1  UNL1        0.0005
     26 O          65.6862   92.9451   13.4731 O.3     1  UNL1       -0.4045
     27 C          67.0966   92.9658   13.9835 C.3     1  UNL1        0.5753
     28 F          68.5069   92.9866   14.4938 F       1  UNL1       -0.1328
     29 F          67.5258   92.1054   12.8322 F       1  UNL1       -0.1328
     30 F          66.6672   93.8262   15.1348 F       1  UNL1       -0.1328
@<TRIPOS>BOND
     1    15    16    1
     2    16     9    1
     3     9    10   ar
     4    10    11   ar
     5    11    12   ar
     6    12    13   ar
     7    13    17    1
     8    17    18    1
     9    13    14   ar
    10     1    14    1
    11     1     2    1
    12     2     3    1
    13     3     4    1
    14     3     5    1
    15     5     6    2
    16     5     7   am
    17     7    19    1
    18    19    20    1
    19    20    21   ar
    20    21    22   ar
    21    22    23   ar
    22    23    26    1
    23    26    27    1
    24    27    28    1
    25    27    29    1
    26    27    30    1
    27    23    24   ar
    28    24    25   ar
    29    14     9   ar
    30     7     1    1
    31    25    20   ar
    32     4     8    1
@<TRIPOS>MOLECULE
*****
 30 32 0 0 0
SMALL
GASTEIGER

@<TRIPOS>ATOM
      1 C          61.9330   86.3739   10.7134 C.3     1  UNL1        0.1070
      2 C          60.8630   86.7030    9.7150 C.3     1  UNL1        0.0633
      3 C          60.3918   88.1014    9.9846 C.3     1  UNL1        0.1888
      4 O          59.3285   88.8357    9.2228 O.3     1  UNL1       -0.3757
      5 C          61.1707   88.6365   11.1496 C.2     1  UNL1        0.2530
      6 O          61.0229   89.9998   11.7574 O.2     1  UNL1       -0.2722
      7 N          62.1231   87.5688   11.6000 N.am    1  UNL1       -0.2711
      8 H          59.2153   89.7225    9.5992 H       1  UNL1        0.2110
      9 C          62.7040   84.3176   12.1017 C.ar    1  UNL1        0.1392
     10 C          63.4525   83.0212   12.1968 C.ar    1  UNL1        0.0368
     11 C          64.1784   82.4846   10.9988 C.ar    1  UNL1        0.0062
     12 C          64.1558   83.2444    9.7057 C.ar    1  UNL1        0.0368
     13 C          63.4073   84.5408    9.6106 C.ar    1  UNL1        0.1392
     14 C          62.6814   85.0774   10.8086 C.ar    1  UNL1        0.0637
     15 C          62.3090   84.3402   14.6694 C.3     1  UNL1        0.2525
     16 O          61.9782   84.8542   13.2997 O.3     1  UNL1       -0.4716
     17 O          63.3847   85.3007    8.3174 O.3     1  UNL1       -0.4716
     18 C          62.5792   84.7883    7.1605 C.3     1  UNL1        0.2525
     19 C          63.0951   87.6771   12.7373 C.3     1  UNL1        0.1204
     20 C          63.7536   88.9906   13.0387 C.ar    1  UNL1       -0.0021
     21 C          64.4202   89.2088   14.3646 C.ar    1  UNL1        0.0005
     22 C          65.0787   90.5223   14.6659 C.ar    1  UNL1        0.0369
     23 C          65.0707   91.6178   13.6413 C.ar    1  UNL1        0.1468
     24 C          64.4041   91.3997   12.3154 C.ar    1  UNL1        0.0369
     25 C          63.7456   90.0861   12.0141 C.ar    1  UNL1        0.0005
     26 O          65.7292   92.9314   13.9427 O.3     1  UNL1       -0.4045
     27 C          67.1827   92.9748   14.3110 C.3     1  UNL1        0.5753
     28 F          68.6361   93.0181   14.6792 F       1  UNL1       -0.1328
     29 F          66.8219   93.4835   15.6751 F       1  UNL1       -0.1328
     30 F          67.5434   92.4660   12.9467 F       1  UNL1       -0.1328
@<TRIPOS>BOND
     1    15    16    1
     2    16     9    1
     3     9    10   ar
     4    10    11   ar
     5    11    12   ar
     6    12    13   ar
     7    13    17    1
     8    17    18    1
     9    13    14   ar
    10     1    14    1
    11     1     2    1
    12     2     3    1
    13     3     4    1
    14     3     5    1
    15     5     6    2
    16     5     7   am
    17     7    19    1
    18    19    20    1
    19    20    21   ar
    20    21    22   ar
    21    22    23   ar
    22    23    26    1
    23    26    27    1
    24    27    28    1
    25    27    29    1
    26    27    30    1
    27    23    24   ar
    28    24    25   ar
    29    14     9   ar
    30     7     1    1
    31    25    20   ar
    32     4     8    1
