@<TRIPOS>MOLECULE
*****
 20 22 0 0 0
SMALL
GASTEIGER

@<TRIPOS>ATOM
      1 N          60.8556   87.5217    9.9976 N.3     1  UNL1       -0.2691
      2 C          61.7562   86.3223   10.0186 C.3     1  UNL1        0.0578
      3 C          61.9601   85.5598   11.2942 C.3     1  UNL1        0.0160
      4 C          62.8607   84.3604   11.3153 C.3     1  UNL1        0.0014
      5 C          63.5573   83.9235   10.0607 C.3     1  UNL1        0.0001
      6 C          63.3534   84.6860    8.7852 C.3     1  UNL1        0.0014
      7 C          62.4528   85.8854    8.7642 C.3     1  UNL1        0.0160
      8 C          59.9467   87.7567    8.8277 C.3     1  UNL1        0.0894
      9 C          59.6587   88.9197    7.9252 C.3     1  UNL1        0.0862
     10 N          58.6614   88.0891    7.1731 N.3     1  UNL1       -0.2951
     11 C          58.9494   86.9262    8.0756 C.3     1  UNL1        0.0862
     12 H          58.9057   87.9285    6.1960 H       1  UNL1        0.1233
     13 C          60.8640   88.4861   11.1464 C.3     1  UNL1        0.0991
     14 CL         65.2531   92.5494   11.6208 Cl      1  UNL1       -0.0822
     15 C          64.1558   91.5336   11.5022 C.ar    1  UNL1        0.0577
     16 C          63.3827   91.4106   10.2227 C.ar    1  UNL1        0.0111
     17 C          62.2854   90.3948   10.1041 C.ar    1  UNL1       -0.0021
     18 C          61.9613   89.5019   11.2650 C.ar    1  UNL1       -0.0061
     19 C          62.7344   89.6249   12.5445 C.ar    1  UNL1       -0.0021
     20 C          63.8317   90.6407   12.6631 C.ar    1  UNL1        0.0111
@<TRIPOS>BOND
     1    14    15    1
     2    15    16   ar
     3    16    17   ar
     4    17    18   ar
     5    18    13    1
     6    13     1    1
     7     1     2    1
     8     2     3    1
     9     3     4    1
    10     4     5    1
    11     5     6    1
    12     6     7    1
    13     1     8    1
    14     8     9    1
    15     9    10    1
    16    10    11    1
    17    18    19   ar
    18    19    20   ar
    19    20    15   ar
    20     7     2    1
    21    11     8    1
    22    10    12    1
@<TRIPOS>MOLECULE
*****
 20 22 0 0 0
SMALL
GASTEIGER

@<TRIPOS>ATOM
      1 N          60.8583   87.5184    9.9942 N.3     1  UNL1       -0.2691
      2 C          61.7595   86.3194   10.0142 C.3     1  UNL1        0.0578
      3 C          62.4543   85.8825    8.7586 C.3     1  UNL1        0.0160
      4 C          63.3555   84.6836    8.7785 C.3     1  UNL1        0.0014
      5 C          63.5618   83.9215   10.0540 C.3     1  UNL1        0.0001
      6 C          62.8669   84.3584   11.3095 C.3     1  UNL1        0.0014
      7 C          61.9658   85.5574   11.2896 C.3     1  UNL1        0.0160
      8 C          59.9490   87.7538    8.8246 C.3     1  UNL1        0.0894
      9 C          58.9521   86.9231    8.0722 C.3     1  UNL1        0.0862
     10 N          58.6631   88.0866    7.1707 N.3     1  UNL1       -0.2951
     11 C          59.6599   88.9173    7.9231 C.3     1  UNL1        0.0862
     12 H          57.7048   88.4312    7.2297 H       1  UNL1        0.1233
     13 C          60.8664   88.4819   11.1438 C.3     1  UNL1        0.0991
     14 CL         65.2574   92.5425   11.6239 Cl      1  UNL1       -0.0822
     15 C          64.1596   91.5274   11.5039 C.ar    1  UNL1        0.0577
     16 C          63.8341   90.6340   12.6640 C.ar    1  UNL1        0.0111
     17 C          62.7364   89.6188   12.5439 C.ar    1  UNL1       -0.0021
     18 C          61.9641   89.4971   11.2638 C.ar    1  UNL1       -0.0061
     19 C          62.2896   90.3905   10.1037 C.ar    1  UNL1       -0.0021
     20 C          63.3874   91.4056   10.2238 C.ar    1  UNL1        0.0111
@<TRIPOS>BOND
     1    14    15    1
     2    15    16   ar
     3    16    17   ar
     4    17    18   ar
     5    18    13    1
     6    13     1    1
     7     1     2    1
     8     2     3    1
     9     3     4    1
    10     4     5    1
    11     5     6    1
    12     6     7    1
    13     1     8    1
    14     8     9    1
    15     9    10    1
    16    10    11    1
    17    18    19   ar
    18    19    20   ar
    19    20    15   ar
    20     7     2    1
    21    11     8    1
    22    10    12    1
@<TRIPOS>MOLECULE
*****
 20 22 0 0 0
SMALL
GASTEIGER

@<TRIPOS>ATOM
      1 N          63.4761   83.4483   12.8128 N.3     1  UNL1       -0.2691
      2 C          63.1440   84.1699   11.5405 C.3     1  UNL1        0.0578
      3 C          62.1817   85.3205   11.5600 C.3     1  UNL1        0.0160
      4 C          61.8496   86.0422   10.2876 C.3     1  UNL1        0.0014
      5 C          62.4798   85.6133    8.9957 C.3     1  UNL1        0.0001
      6 C          63.4421   84.4628    8.9762 C.3     1  UNL1        0.0014
      7 C          63.7741   83.7411   10.2486 C.3     1  UNL1        0.0160
      8 C          62.7854   82.1591   13.1461 C.3     1  UNL1        0.0894
      9 C          62.7435   80.7896   12.5355 C.3     1  UNL1        0.0862
     10 N          61.8086   80.3359   13.6173 N.3     1  UNL1       -0.2951
     11 C          61.8505   81.7054   14.2278 C.3     1  UNL1        0.0862
     12 H          62.1883   79.6017   14.2149 H       1  UNL1        0.1233
     13 C          64.4988   84.0157   13.7519 C.3     1  UNL1        0.0991
     14 CL         63.1035   88.6987   17.2336 Cl      1  UNL1       -0.0822
     15 C          63.4524   87.5280   16.3632 C.ar    1  UNL1        0.0577
     16 C          64.1283   87.7502   15.0427 C.ar    1  UNL1        0.0111
     17 C          64.4771   86.5794   14.1723 C.ar    1  UNL1       -0.0021
     18 C          64.1500   85.1865   14.6223 C.ar    1  UNL1       -0.0061
     19 C          63.4740   84.9643   15.9428 C.ar    1  UNL1       -0.0021
     20 C          63.1252   86.1350   16.8132 C.ar    1  UNL1        0.0111
@<TRIPOS>BOND
     1    14    15    1
     2    15    16   ar
     3    16    17   ar
     4    17    18   ar
     5    18    13    1
     6    13     1    1
     7     1     2    1
     8     2     3    1
     9     3     4    1
    10     4     5    1
    11     5     6    1
    12     6     7    1
    13     1     8    1
    14     8     9    1
    15     9    10    1
    16    10    11    1
    17    18    19   ar
    18    19    20   ar
    19    20    15   ar
    20     7     2    1
    21    11     8    1
    22    10    12    1
@<TRIPOS>MOLECULE
*****
 20 22 0 0 0
SMALL
GASTEIGER

@<TRIPOS>ATOM
      1 N          64.7571   91.5131   13.9900 N.3     1  UNL1       -0.2691
      2 C          66.1117   91.9462   14.4671 C.3     1  UNL1        0.0578
      3 C          66.2594   92.6072   15.8055 C.3     1  UNL1        0.0160
      4 C          67.6140   93.0403   16.2826 C.3     1  UNL1        0.0014
      5 C          68.8208   92.8124   15.4212 C.3     1  UNL1        0.0001
      6 C          68.6729   92.1515   14.0829 C.3     1  UNL1        0.0014
      7 C          67.3184   91.7184   13.6058 C.3     1  UNL1        0.0160
      8 C          64.4137   91.5956   12.5321 C.3     1  UNL1        0.0894
      9 C          63.4080   90.9301   11.6400 C.3     1  UNL1        0.0862
     10 N          63.9279   91.7122   10.4704 N.3     1  UNL1       -0.2951
     11 C          64.9336   92.3778   11.3625 C.3     1  UNL1        0.0862
     12 H          63.2467   92.3516   10.0611 H       1  UNL1        0.1233
     13 C          63.7460   90.9976   14.9707 C.3     1  UNL1        0.0991
     14 CL         63.6859   85.1804   16.4392 Cl      1  UNL1       -0.0822
     15 C          63.7010   86.6347   16.0721 C.ar    1  UNL1        0.0577
     16 C          64.3475   87.0788   14.7936 C.ar    1  UNL1        0.0111
     17 C          64.3626   88.5331   14.4264 C.ar    1  UNL1       -0.0021
     18 C          63.7310   89.5433   15.3378 C.ar    1  UNL1       -0.0061
     19 C          63.0844   89.0991   16.6163 C.ar    1  UNL1       -0.0021
     20 C          63.0694   87.6448   16.9834 C.ar    1  UNL1        0.0111
@<TRIPOS>BOND
     1    14    15    1
     2    15    16   ar
     3    16    17   ar
     4    17    18   ar
     5    18    13    1
     6    13     1    1
     7     1     2    1
     8     2     3    1
     9     3     4    1
    10     4     5    1
    11     5     6    1
    12     6     7    1
    13     1     8    1
    14     8     9    1
    15     9    10    1
    16    10    11    1
    17    18    19   ar
    18    19    20   ar
    19    20    15   ar
    20     7     2    1
    21    11     8    1
    22    10    12    1
@<TRIPOS>MOLECULE
*****
 20 22 0 0 0
SMALL
GASTEIGER

@<TRIPOS>ATOM
      1 N          66.0954   92.4154   12.2661 N.3     1  UNL1       -0.2691
      2 C          66.7925   92.8763   11.0205 C.3     1  UNL1        0.0578
      3 C          66.4787   94.2236   10.4403 C.3     1  UNL1        0.0160
      4 C          67.1758   94.6845    9.1947 C.3     1  UNL1        0.0014
      5 C          68.1867   93.7982    8.5293 C.3     1  UNL1        0.0001
      6 C          68.5004   92.4511    9.1095 C.3     1  UNL1        0.0014
      7 C          67.8033   91.9901   10.3551 C.3     1  UNL1        0.0160
      8 C          66.8963   92.0218   13.4719 C.3     1  UNL1        0.0894
      9 C          66.5680   91.4958   14.8377 C.3     1  UNL1        0.0862
     10 N          68.0288   91.4651   15.1770 N.3     1  UNL1       -0.2951
     11 C          68.3571   91.9911   13.8112 C.3     1  UNL1        0.0862
     12 H          68.3938   90.5309   15.3622 H       1  UNL1        0.1233
     13 C          64.5974   92.3481   12.3061 C.3     1  UNL1        0.0991
     14 CL         61.7767   87.3066   10.6854 Cl      1  UNL1       -0.0822
     15 C          62.4819   88.5669   11.0906 C.ar    1  UNL1        0.0577
     16 C          62.5257   89.7366   10.1525 C.ar    1  UNL1        0.0111
     17 C          63.2309   90.9969   10.5577 C.ar    1  UNL1       -0.0021
     18 C          63.8922   91.0877   11.9009 C.ar    1  UNL1       -0.0061
     19 C          63.8484   89.9181   12.8390 C.ar    1  UNL1       -0.0021
     20 C          63.1432   88.6577   12.4338 C.ar    1  UNL1        0.0111
@<TRIPOS>BOND
     1    14    15    1
     2    15    16   ar
     3    16    17   ar
     4    17    18   ar
     5    18    13    1
     6    13     1    1
     7     1     2    1
     8     2     3    1
     9     3     4    1
    10     4     5    1
    11     5     6    1
    12     6     7    1
    13     1     8    1
    14     8     9    1
    15     9    10    1
    16    10    11    1
    17    18    19   ar
    18    19    20   ar
    19    20    15   ar
    20     7     2    1
    21    11     8    1
    22    10    12    1
@<TRIPOS>MOLECULE
*****
 20 22 0 0 0
SMALL
GASTEIGER

@<TRIPOS>ATOM
      1 N          63.2248   83.2538   12.9686 N.3     1  UNL1       -0.2691
      2 C          63.3310   84.2018   14.1262 C.3     1  UNL1        0.0578
      3 C          64.4712   85.1739   14.1974 C.3     1  UNL1        0.0160
      4 C          64.5774   86.1218   15.3550 C.3     1  UNL1        0.0014
      5 C          63.5435   86.0976   16.4416 C.3     1  UNL1        0.0001
      6 C          62.4034   85.1255   16.3704 C.3     1  UNL1        0.0014
      7 C          62.2971   84.1775   15.2127 C.3     1  UNL1        0.0160
      8 C          62.6395   81.8873   13.1694 C.3     1  UNL1        0.0894
      9 C          61.6211   81.2957   14.0983 C.3     1  UNL1        0.0862
     10 N          61.8119   79.9549   13.4535 N.3     1  UNL1       -0.2951
     11 C          62.8303   80.5465   12.5246 C.3     1  UNL1        0.0862
     12 H          60.9799   79.5959   12.9852 H       1  UNL1        0.1233
     13 C          63.7037   83.6724   11.6102 C.3     1  UNL1        0.0991
     14 CL         60.5120   87.5944    8.3805 Cl      1  UNL1       -0.0822
     15 C          61.3100   86.6139    9.1879 C.ar    1  UNL1        0.0577
     16 C          62.3337   85.7470    8.5168 C.ar    1  UNL1        0.0111
     17 C          63.1316   84.7665    9.3242 C.ar    1  UNL1       -0.0021
     18 C          62.9058   84.6529   10.8027 C.ar    1  UNL1       -0.0061
     19 C          61.8821   85.5198   11.4738 C.ar    1  UNL1       -0.0021
     20 C          61.0841   86.5003   10.6664 C.ar    1  UNL1        0.0111
@<TRIPOS>BOND
     1    14    15    1
     2    15    16   ar
     3    16    17   ar
     4    17    18   ar
     5    18    13    1
     6    13     1    1
     7     1     2    1
     8     2     3    1
     9     3     4    1
    10     4     5    1
    11     5     6    1
    12     6     7    1
    13     1     8    1
    14     8     9    1
    15     9    10    1
    16    10    11    1
    17    18    19   ar
    18    19    20   ar
    19    20    15   ar
    20     7     2    1
    21    11     8    1
    22    10    12    1
@<TRIPOS>MOLECULE
*****
 20 22 0 0 0
SMALL
GASTEIGER

@<TRIPOS>ATOM
      1 N          61.8599   87.0165    9.2726 N.3     1  UNL1       -0.2691
      2 C          62.2218   88.1997   10.1206 C.3     1  UNL1        0.0578
      3 C          62.0939   89.5874    9.5656 C.3     1  UNL1        0.0160
      4 C          62.4557   90.7706   10.4137 C.3     1  UNL1        0.0014
      5 C          62.9455   90.5660   11.8167 C.3     1  UNL1        0.0001
      6 C          63.0735   89.1783   12.3715 C.3     1  UNL1        0.0014
      7 C          62.7116   87.9952   11.5235 C.3     1  UNL1        0.0160
      8 C          60.4783   86.8982    8.7006 C.3     1  UNL1        0.0894
      9 C          59.8366   86.0473    7.6450 C.3     1  UNL1        0.0862
     10 N          58.5244   86.7308    7.8917 N.3     1  UNL1       -0.2951
     11 C          59.1660   87.5817    8.9473 C.3     1  UNL1        0.0862
     12 H          57.7926   86.1131    8.2427 H       1  UNL1        0.1233
     13 C          62.8796   85.9516    8.9965 C.3     1  UNL1        0.0991
     14 CL         63.5191   81.3528   12.7968 Cl      1  UNL1       -0.0822
     15 C          63.3593   82.5025   11.8467 C.ar    1  UNL1        0.0577
     16 C          64.0511   82.4777   10.5161 C.ar    1  UNL1        0.0111
     17 C          63.8913   83.6274    9.5660 C.ar    1  UNL1       -0.0021
     18 C          63.0395   84.8019    9.9466 C.ar    1  UNL1       -0.0061
     19 C          62.3476   84.8268   11.2772 C.ar    1  UNL1       -0.0021
     20 C          62.5075   83.6771   12.2273 C.ar    1  UNL1        0.0111
@<TRIPOS>BOND
     1    14    15    1
     2    15    16   ar
     3    16    17   ar
     4    17    18   ar
     5    18    13    1
     6    13     1    1
     7     1     2    1
     8     2     3    1
     9     3     4    1
    10     4     5    1
    11     5     6    1
    12     6     7    1
    13     1     8    1
    14     8     9    1
    15     9    10    1
    16    10    11    1
    17    18    19   ar
    18    19    20   ar
    19    20    15   ar
    20     7     2    1
    21    11     8    1
    22    10    12    1
@<TRIPOS>MOLECULE
*****
 20 22 0 0 0
SMALL
GASTEIGER

@<TRIPOS>ATOM
      1 N          64.6963   91.4560   14.2059 N.3     1  UNL1       -0.2691
      2 C          64.1205   91.3553   12.8245 C.3     1  UNL1        0.0578
      3 C          62.8457   90.5982   12.5967 C.3     1  UNL1        0.0160
      4 C          62.2699   90.4974   11.2153 C.3     1  UNL1        0.0014
      5 C          62.9689   91.1538   10.0617 C.3     1  UNL1        0.0001
      6 C          64.2436   91.9109   10.2895 C.3     1  UNL1        0.0014
      7 C          64.8194   92.0116   11.6709 C.3     1  UNL1        0.0160
      8 C          66.0366   92.0964   14.4149 C.3     1  UNL1        0.0894
      9 C          67.4122   91.5952   14.7413 C.3     1  UNL1        0.0862
     10 N          67.9320   93.0019   14.7105 N.3     1  UNL1       -0.2951
     11 C          66.5564   93.5031   14.3841 C.3     1  UNL1        0.0862
     12 H          68.6224   93.1748   13.9799 H       1  UNL1        0.1233
     13 C          63.9319   90.9164   15.3783 C.3     1  UNL1        0.0991
     14 CL         63.5705   84.9917   16.2542 Cl      1  UNL1       -0.0822
     15 C          63.6608   86.4729   16.0352 C.ar    1  UNL1        0.0577
     16 C          63.0145   87.4155   17.0066 C.ar    1  UNL1        0.0111
     17 C          63.1048   88.8967   16.7877 C.ar    1  UNL1       -0.0021
     18 C          63.8415   89.4353   15.5972 C.ar    1  UNL1       -0.0061
     19 C          64.4879   88.4927   14.6258 C.ar    1  UNL1       -0.0021
     20 C          64.3975   87.0115   14.8448 C.ar    1  UNL1        0.0111
@<TRIPOS>BOND
     1    14    15    1
     2    15    16   ar
     3    16    17   ar
     4    17    18   ar
     5    18    13    1
     6    13     1    1
     7     1     2    1
     8     2     3    1
     9     3     4    1
    10     4     5    1
    11     5     6    1
    12     6     7    1
    13     1     8    1
    14     8     9    1
    15     9    10    1
    16    10    11    1
    17    18    19   ar
    18    19    20   ar
    19    20    15   ar
    20     7     2    1
    21    11     8    1
    22    10    12    1
@<TRIPOS>MOLECULE
*****
 20 22 0 0 0
SMALL
GASTEIGER

@<TRIPOS>ATOM
      1 N          62.3903   87.1225   11.8278 N.3     1  UNL1       -0.2691
      2 C          62.8318   88.5524   11.7259 C.3     1  UNL1        0.0578
      3 C          62.5907   89.3235   10.4620 C.3     1  UNL1        0.0160
      4 C          63.0322   90.7534   10.3601 C.3     1  UNL1        0.0014
      5 C          63.7147   91.4123   11.5221 C.3     1  UNL1        0.0001
      6 C          63.9557   90.6412   12.7859 C.3     1  UNL1        0.0014
      7 C          63.5142   89.2112   12.8878 C.3     1  UNL1        0.0160
      8 C          63.1296   86.1711   12.7215 C.3     1  UNL1        0.0894
      9 C          63.9663   86.3111   13.9586 C.3     1  UNL1        0.0862
     10 N          64.1751   84.8259   13.9853 N.3     1  UNL1       -0.2951
     11 C          63.3384   84.6860   12.7482 C.3     1  UNL1        0.0862
     12 H          63.7839   84.3651   14.8069 H       1  UNL1        0.1233
     13 C          61.2096   86.6438   11.0362 C.3     1  UNL1        0.0991
     14 CL         61.9970   84.4330    5.5142 Cl      1  UNL1       -0.0822
     15 C          61.8001   84.9857    6.8947 C.ar    1  UNL1        0.0577
     16 C          62.8938   84.8646    7.9140 C.ar    1  UNL1        0.0111
     17 C          62.6970   85.4173    9.2945 C.ar    1  UNL1       -0.0021
     18 C          61.4064   86.0911    9.6557 C.ar    1  UNL1       -0.0061
     19 C          60.3127   86.2122    8.6363 C.ar    1  UNL1       -0.0021
     20 C          60.5096   85.6595    7.2558 C.ar    1  UNL1        0.0111
@<TRIPOS>BOND
     1    14    15    1
     2    15    16   ar
     3    16    17   ar
     4    17    18   ar
     5    18    13    1
     6    13     1    1
     7     1     2    1
     8     2     3    1
     9     3     4    1
    10     4     5    1
    11     5     6    1
    12     6     7    1
    13     1     8    1
    14     8     9    1
    15     9    10    1
    16    10    11    1
    17    18    19   ar
    18    19    20   ar
    19    20    15   ar
    20     7     2    1
    21    11     8    1
    22    10    12    1
