@<TRIPOS>MOLECULE
*****
 41 44 0 0 0
SMALL
GASTEIGER

@<TRIPOS>ATOM
      1 C          61.9145   88.5092   11.0741 C.3     1  UNL1        0.0799
      2 C          62.9282   89.5149   11.5338 C.ar    1  UNL1        0.0374
      3 C          63.2758   90.6828   10.6592 C.ar    1  UNL1        0.0023
      4 C          64.2894   91.6885   11.1188 C.ar    1  UNL1        0.0181
      5 C          64.6371   92.8565   10.2442 C.ar    1  UNL1        0.0082
      6 C          65.6507   93.8622   10.7038 C.ar    1  UNL1        0.0347
      7 BR         65.9984   95.0302    9.8292 Br      1  UNL1       -0.0490
      8 C          66.3167   93.6998   12.0380 C.ar    1  UNL1        0.0082
      9 C          65.9690   92.5318   12.9126 C.ar    1  UNL1        0.0197
     10 C          64.9554   91.5262   12.4530 C.ar    1  UNL1        0.0844
     11 N          64.6078   90.3582   13.3276 N.ar    1  UNL1       -0.2119
     12 C          63.5941   89.3525   12.8680 C.ar    1  UNL1        0.2211
     13 O          63.2465   88.1845   13.7426 O.3     1  UNL1       -0.4563
     14 C          64.3204   87.4860   14.5229 C.3     1  UNL1        0.2542
     15 C          62.3652   87.2128   10.4690 C.ar    1  UNL1        0.0148
     16 C          62.9314   87.1902    9.0802 C.ar    1  UNL1       -0.0014
     17 C          63.3822   85.8938    8.4750 C.ar    1  UNL1        0.0029
     18 C          63.2667   84.6200    9.2586 C.ar    1  UNL1        0.0392
     19 C          62.7004   84.6427   10.6475 C.ar    1  UNL1        0.1657
     20 C          62.2497   85.9390   11.2527 C.ar    1  UNL1        0.1702
     21 F          61.6835   85.9616   12.6415 F       1  UNL1       -0.2013
     22 O          62.5849   83.3689   11.4312 O.3     1  UNL1       -0.4692
     23 C          63.6050   82.2836   11.2531 C.3     1  UNL1        0.2526
     24 C          60.4502   88.8000   11.2196 C.3     1  UNL1        0.1162
     25 O          60.6549   89.1031   12.6743 O.3     1  UNL1       -0.3820
     26 H          59.8063   89.3458   13.0766 H       1  UNL1        0.2107
     27 C          59.9968   89.3108    7.3102 C.ar    1  UNL1        0.2272
     28 C          60.2015   89.6140    8.7649 C.ar    1  UNL1        0.0559
     29 C          60.2454   88.4968    9.7649 C.ar    1  UNL1        0.0117
     30 C          60.0846   87.0765    9.3102 C.ar    1  UNL1        0.0559
     31 C          59.8798   86.7734    7.8555 C.ar    1  UNL1        0.2272
     32 N          59.8359   87.8905    6.8555 N.ar    1  UNL1       -0.1767
     33 C          58.6977   90.6886    5.5314 C.3     1  UNL1        0.2542
     34 O          59.9529   90.4281    6.3102 O.3     1  UNL1       -0.4561
     35 O          59.7190   85.3530    7.4008 O.3     1  UNL1       -0.4561
     36 C          60.7866   84.7063    6.5690 C.3     1  UNL1        0.2542
     37 C          58.9859   89.0908   11.3651 C.3     1  UNL1        0.0491
     38 C          58.4510   89.6163   12.6642 C.3     1  UNL1        0.0750
     39 N          57.9428   88.6643   13.7061 N.3     1  UNL1       -0.2702
     40 C          56.6213   87.9806   13.5165 C.3     1  UNL1        0.0897
     41 C          58.7562   88.3960   14.9375 C.3     1  UNL1        0.0897
@<TRIPOS>BOND
     1    33    34    1
     2    34    27    1
     3    27    28   ar
     4    28    29   ar
     5    29    24    1
     6    24    25    1
     7    24    37    1
     8    37    38    1
     9    38    39    1
    10    39    40    1
    11    39    41    1
    12    24     1    1
    13     1     2    1
    14     2     3   ar
    15     3     4   ar
    16     4     5   ar
    17     5     6   ar
    18     6     7    1
    19     6     8   ar
    20     8     9   ar
    21     9    10   ar
    22    10    11   ar
    23    11    12   ar
    24    12    13    1
    25    13    14    1
    26     1    15    1
    27    15    16   ar
    28    16    17   ar
    29    17    18   ar
    30    18    19   ar
    31    19    22    1
    32    22    23    1
    33    19    20   ar
    34    20    21    1
    35    29    30   ar
    36    30    31   ar
    37    31    35    1
    38    35    36    1
    39    31    32   ar
    40    32    27   ar
    41    12     2   ar
    42    20    15   ar
    43    10     4   ar
    44    25    26    1
@<TRIPOS>MOLECULE
*****
 41 44 0 0 0
SMALL
GASTEIGER

@<TRIPOS>ATOM
      1 C          61.9149   88.4996   11.0699 C.3     1  UNL1        0.0799
      2 C          62.9275   89.5053   11.5319 C.ar    1  UNL1        0.0374
      3 C          63.2718   90.6772   10.6613 C.ar    1  UNL1        0.0023
      4 C          64.2844   91.6828   11.1233 C.ar    1  UNL1        0.0181
      5 C          64.6287   92.8548   10.2527 C.ar    1  UNL1        0.0082
      6 C          65.6413   93.8605   10.7147 C.ar    1  UNL1        0.0347
      7 BR         65.9856   95.0324    9.8442 Br      1  UNL1       -0.0490
      8 C          66.3095   93.6941   12.0473 C.ar    1  UNL1        0.0082
      9 C          65.9652   92.5221   12.9179 C.ar    1  UNL1        0.0197
     10 C          64.9527   91.5165   12.4559 C.ar    1  UNL1        0.0844
     11 N          64.6084   90.3445   13.3265 N.ar    1  UNL1       -0.2119
     12 C          63.5958   89.3389   12.8644 C.ar    1  UNL1        0.2211
     13 O          63.2515   88.1669   13.7350 O.3     1  UNL1       -0.4563
     14 C          64.3293   87.4610   14.5032 C.3     1  UNL1        0.2542
     15 C          62.3670   87.2038   10.4645 C.ar    1  UNL1        0.0148
     16 C          62.9330   87.1820    9.0756 C.ar    1  UNL1       -0.0014
     17 C          63.3851   85.8862    8.4701 C.ar    1  UNL1        0.0029
     18 C          63.2711   84.6122    9.2537 C.ar    1  UNL1        0.0392
     19 C          62.7051   84.6340   10.6427 C.ar    1  UNL1        0.1657
     20 C          62.2530   85.9298   11.2480 C.ar    1  UNL1        0.1702
     21 F          61.6870   85.9516   12.6370 F       1  UNL1       -0.2013
     22 O          62.5911   83.3600   11.4262 O.3     1  UNL1       -0.4692
     23 C          63.5917   82.2614   11.2211 C.3     1  UNL1        0.2526
     24 C          60.4503   88.7899   11.2132 C.3     1  UNL1        0.1162
     25 O          60.6527   89.0928   12.6683 O.3     1  UNL1       -0.3820
     26 H          59.8034   89.3350   13.0694 H       1  UNL1        0.2107
     27 C          59.8846   86.7639    7.8479 C.ar    1  UNL1        0.2272
     28 C          60.0871   87.0668    9.3030 C.ar    1  UNL1        0.0559
     29 C          60.2478   88.4870    9.7582 C.ar    1  UNL1        0.0117
     30 C          60.2061   89.6042    8.7582 C.ar    1  UNL1        0.0559
     31 C          60.0036   89.3013    7.3031 C.ar    1  UNL1        0.2272
     32 N          59.8429   87.8812    6.8480 N.ar    1  UNL1       -0.1767
     33 C          60.7919   84.6970    6.5615 C.3     1  UNL1        0.2542
     34 O          59.7238   85.3436    7.3928 O.3     1  UNL1       -0.4561
     35 O          59.9619   90.4187    6.3032 O.3     1  UNL1       -0.4561
     36 C          58.7038   90.6886    5.5323 C.3     1  UNL1        0.2542
     37 C          58.9856   89.0801   11.3566 C.3     1  UNL1        0.0491
     38 C          58.4489   89.6068   12.6545 C.3     1  UNL1        0.0750
     39 N          57.9332   88.6561   13.6938 N.3     1  UNL1       -0.2702
     40 C          58.7435   88.3798   14.9255 C.3     1  UNL1        0.0897
     41 C          56.6073   87.9818   13.5015 C.3     1  UNL1        0.0897
@<TRIPOS>BOND
     1    33    34    1
     2    34    27    1
     3    27    28   ar
     4    28    29   ar
     5    29    24    1
     6    24    25    1
     7    24    37    1
     8    37    38    1
     9    38    39    1
    10    39    40    1
    11    39    41    1
    12    24     1    1
    13     1     2    1
    14     2     3   ar
    15     3     4   ar
    16     4     5   ar
    17     5     6   ar
    18     6     7    1
    19     6     8   ar
    20     8     9   ar
    21     9    10   ar
    22    10    11   ar
    23    11    12   ar
    24    12    13    1
    25    13    14    1
    26     1    15    1
    27    15    16   ar
    28    16    17   ar
    29    17    18   ar
    30    18    19   ar
    31    19    22    1
    32    22    23    1
    33    19    20   ar
    34    20    21    1
    35    29    30   ar
    36    30    31   ar
    37    31    35    1
    38    35    36    1
    39    31    32   ar
    40    32    27   ar
    41    12     2   ar
    42    20    15   ar
    43    10     4   ar
    44    25    26    1
@<TRIPOS>MOLECULE
*****
 41 44 0 0 0
SMALL
GASTEIGER

@<TRIPOS>ATOM
      1 C          62.1552   88.9833   11.3436 C.3     1  UNL1        0.0799
      2 C          62.3791   87.5443   10.9843 C.ar    1  UNL1        0.0374
      3 C          62.8967   86.5856   12.0153 C.ar    1  UNL1        0.0023
      4 C          63.1206   85.1466   11.6560 C.ar    1  UNL1        0.0181
      5 C          63.6381   84.1879   12.6871 C.ar    1  UNL1        0.0082
      6 C          63.8620   82.7488   12.3277 C.ar    1  UNL1        0.0347
      7 BR         64.3796   81.7901   13.3588 Br      1  UNL1       -0.0490
      8 C          63.5685   82.2685   10.9374 C.ar    1  UNL1        0.0082
      9 C          63.0510   83.2272    9.9063 C.ar    1  UNL1        0.0197
     10 C          62.8270   84.6662   10.2656 C.ar    1  UNL1        0.0844
     11 N          62.3095   85.6249    9.2346 N.ar    1  UNL1       -0.2119
     12 C          62.0856   87.0640    9.5939 C.ar    1  UNL1        0.2211
     13 O          61.5681   88.0227    8.5629 O.3     1  UNL1       -0.4563
     14 C          60.0924   88.1380    8.3197 C.3     1  UNL1        0.2542
     15 C          60.7708   89.4735   11.6487 C.ar    1  UNL1        0.0148
     16 C          60.3338   90.8283   11.1760 C.ar    1  UNL1       -0.0014
     17 C          58.9493   91.3185   11.4810 C.ar    1  UNL1        0.0029
     18 C          58.0019   90.4539   12.2587 C.ar    1  UNL1        0.0392
     19 C          58.4390   89.0990   12.7314 C.ar    1  UNL1        0.1657
     20 C          59.8234   88.6088   12.4264 C.ar    1  UNL1        0.1702
     21 F          60.2604   87.2540   12.8990 F       1  UNL1       -0.2013
     22 O          57.4916   88.2344   13.5091 O.3     1  UNL1       -0.4692
     23 C          56.0408   88.1831   13.1313 C.3     1  UNL1        0.2526
     24 C          63.3157   89.9321   11.3979 C.3     1  UNL1        0.1162
     25 O          63.1428   90.2271    9.9374 O.3     1  UNL1       -0.3820
     26 H          63.8131   90.8692    9.6557 H       1  UNL1        0.2107
     27 C          63.4969   90.4378   15.3300 C.ar    1  UNL1        0.2272
     28 C          63.3240   90.7328   13.8695 C.ar    1  UNL1        0.0559
     29 C          63.4886   89.6371   12.8584 C.ar    1  UNL1        0.0117
     30 C          63.8261   88.2464   13.3078 C.ar    1  UNL1        0.0559
     31 C          63.9990   87.9514   14.7683 C.ar    1  UNL1        0.2272
     32 N          63.8344   89.0471   15.7794 N.ar    1  UNL1       -0.1767
     33 C          64.5334   92.2822   16.8380 C.3     1  UNL1        0.2542
     34 O          63.3323   91.5336   16.3411 O.3     1  UNL1       -0.4561
     35 O          64.3364   86.5606   15.2177 O.3     1  UNL1       -0.4561
     36 C          63.5786   85.9338   16.3503 C.3     1  UNL1        0.2542
     37 C          64.4763   90.8809   11.4522 C.3     1  UNL1        0.0491
     38 C          64.4433   92.1524   10.6571 C.3     1  UNL1        0.0750
     39 N          65.6656   93.0180   10.5758 N.3     1  UNL1       -0.2702
     40 C          65.5310   94.5114   10.6149 C.3     1  UNL1        0.0897
     41 C          67.0226   92.3902   10.4553 C.3     1  UNL1        0.0897
@<TRIPOS>BOND
     1    33    34    1
     2    34    27    1
     3    27    28   ar
     4    28    29   ar
     5    29    24    1
     6    24    25    1
     7    24    37    1
     8    37    38    1
     9    38    39    1
    10    39    40    1
    11    39    41    1
    12    24     1    1
    13     1     2    1
    14     2     3   ar
    15     3     4   ar
    16     4     5   ar
    17     5     6   ar
    18     6     7    1
    19     6     8   ar
    20     8     9   ar
    21     9    10   ar
    22    10    11   ar
    23    11    12   ar
    24    12    13    1
    25    13    14    1
    26     1    15    1
    27    15    16   ar
    28    16    17   ar
    29    17    18   ar
    30    18    19   ar
    31    19    22    1
    32    22    23    1
    33    19    20   ar
    34    20    21    1
    35    29    30   ar
    36    30    31   ar
    37    31    35    1
    38    35    36    1
    39    31    32   ar
    40    32    27   ar
    41    12     2   ar
    42    20    15   ar
    43    10     4   ar
    44    25    26    1
@<TRIPOS>MOLECULE
*****
 41 44 0 0 0
SMALL
GASTEIGER

@<TRIPOS>ATOM
      1 C          62.1637   88.9571   11.3549 C.3     1  UNL1        0.0799
      2 C          62.3789   87.5157   10.9993 C.ar    1  UNL1        0.0374
      3 C          62.8974   86.5581   12.0309 C.ar    1  UNL1        0.0023
      4 C          63.1126   85.1169   11.6753 C.ar    1  UNL1        0.0181
      5 C          63.6311   84.1593   12.7069 C.ar    1  UNL1        0.0082
      6 C          63.8463   82.7179   12.3513 C.ar    1  UNL1        0.0347
      7 BR         64.3649   81.7603   13.3828 Br      1  UNL1       -0.0490
      8 C          63.5429   82.2343   10.9642 C.ar    1  UNL1        0.0082
      9 C          63.0244   83.1919    9.9327 C.ar    1  UNL1        0.0197
     10 C          62.8092   84.6331   10.2882 C.ar    1  UNL1        0.0844
     11 N          62.2906   85.5908    9.2567 N.ar    1  UNL1       -0.2119
     12 C          62.0755   87.0321    9.6122 C.ar    1  UNL1        0.2211
     13 O          61.5569   87.9897    8.5807 O.3     1  UNL1       -0.4563
     14 C          60.0827   88.0861    8.3206 C.3     1  UNL1        0.2542
     15 C          60.7818   89.4572   11.6551 C.ar    1  UNL1        0.0148
     16 C          60.3534   90.8117   11.1735 C.ar    1  UNL1       -0.0014
     17 C          58.9715   91.3119   11.4738 C.ar    1  UNL1        0.0029
     18 C          58.0180   90.4577   12.2556 C.ar    1  UNL1        0.0392
     19 C          58.4465   89.1032   12.7372 C.ar    1  UNL1        0.1657
     20 C          59.8284   88.6030   12.4369 C.ar    1  UNL1        0.1702
     21 F          60.2568   87.2486   12.9185 F       1  UNL1       -0.2013
     22 O          57.4930   88.2490   13.5190 O.3     1  UNL1       -0.4692
     23 C          56.0444   88.1958   13.1332 C.3     1  UNL1        0.2526
     24 C          63.3305   89.8981   11.4102 C.3     1  UNL1        0.1162
     25 O          63.1651   90.1891    9.9480 O.3     1  UNL1       -0.3820
     26 H          63.8408   90.8256    9.6666 H       1  UNL1        0.2107
     27 C          63.9912   87.9256   14.7899 C.ar    1  UNL1        0.2272
     28 C          63.8258   88.2166   13.3277 C.ar    1  UNL1        0.0559
     29 C          63.4958   89.6071   12.8724 C.ar    1  UNL1        0.0117
     30 C          63.3312   90.7067   13.8792 C.ar    1  UNL1        0.0559
     31 C          63.4966   90.4157   15.3414 C.ar    1  UNL1        0.2272
     32 N          63.8266   89.0251   15.7968 N.ar    1  UNL1       -0.1767
     33 C          63.5594   85.9166   16.3799 C.3     1  UNL1        0.2542
     34 O          64.3212   86.5349   15.2452 O.3     1  UNL1       -0.4561
     35 O          63.3319   91.5154   16.3483 O.3     1  UNL1       -0.4561
     36 C          64.5341   92.2592   16.8498 C.3     1  UNL1        0.2542
     37 C          64.4972   90.8392   11.4655 C.3     1  UNL1        0.0491
     38 C          64.3963   92.1968   10.8357 C.3     1  UNL1        0.0750
     39 N          65.3618   93.2772   11.2237 N.3     1  UNL1       -0.2702
     40 C          66.0071   93.2557   12.5776 C.3     1  UNL1        0.0897
     41 C          65.6821   94.3791   10.2578 C.3     1  UNL1        0.0897
@<TRIPOS>BOND
     1    33    34    1
     2    34    27    1
     3    27    28   ar
     4    28    29   ar
     5    29    24    1
     6    24    25    1
     7    24    37    1
     8    37    38    1
     9    38    39    1
    10    39    40    1
    11    39    41    1
    12    24     1    1
    13     1     2    1
    14     2     3   ar
    15     3     4   ar
    16     4     5   ar
    17     5     6   ar
    18     6     7    1
    19     6     8   ar
    20     8     9   ar
    21     9    10   ar
    22    10    11   ar
    23    11    12   ar
    24    12    13    1
    25    13    14    1
    26     1    15    1
    27    15    16   ar
    28    16    17   ar
    29    17    18   ar
    30    18    19   ar
    31    19    22    1
    32    22    23    1
    33    19    20   ar
    34    20    21    1
    35    29    30   ar
    36    30    31   ar
    37    31    35    1
    38    35    36    1
    39    31    32   ar
    40    32    27   ar
    41    12     2   ar
    42    20    15   ar
    43    10     4   ar
    44    25    26    1
@<TRIPOS>MOLECULE
*****
 41 44 0 0 0
SMALL
GASTEIGER

@<TRIPOS>ATOM
      1 C          62.3332   89.3087   12.2266 C.3     1  UNL1        0.0799
      2 C          62.8481   87.9736   12.6766 C.ar    1  UNL1        0.0374
      3 C          62.7546   86.7872   11.7636 C.ar    1  UNL1        0.0023
      4 C          63.2695   85.4521   12.2135 C.ar    1  UNL1        0.0181
      5 C          63.1760   84.2657   11.3004 C.ar    1  UNL1        0.0082
      6 C          63.6909   82.9306   11.7504 C.ar    1  UNL1        0.0347
      7 BR         63.5974   81.7442   10.8374 Br      1  UNL1       -0.0490
      8 C          64.2992   82.7819   13.1134 C.ar    1  UNL1        0.0082
      9 C          64.3927   83.9683   14.0265 C.ar    1  UNL1        0.0197
     10 C          63.8778   85.3034   13.5766 C.ar    1  UNL1        0.0844
     11 N          63.9713   86.4898   14.4896 N.ar    1  UNL1       -0.2119
     12 C          63.4564   87.8249   14.0396 C.ar    1  UNL1        0.2211
     13 O          63.5499   89.0113   14.9527 O.3     1  UNL1       -0.4563
     14 C          63.2070   88.8682   16.4060 C.3     1  UNL1        0.2542
     15 C          63.2904   90.3574   11.7429 C.ar    1  UNL1        0.0148
     16 C          63.5392   90.5251   10.2732 C.ar    1  UNL1       -0.0014
     17 C          64.4964   91.5739    9.7894 C.ar    1  UNL1        0.0029
     18 C          65.2047   92.4549   10.7754 C.ar    1  UNL1        0.0392
     19 C          64.9559   92.2872   12.2451 C.ar    1  UNL1        0.1657
     20 C          63.9987   91.2384   12.7288 C.ar    1  UNL1        0.1702
     21 F          63.7499   91.0708   14.1985 F       1  UNL1       -0.2013
     22 O          65.6642   93.1682   13.2310 O.3     1  UNL1       -0.4692
     23 C          66.8742   92.6595   13.9573 C.3     1  UNL1        0.2526
     24 C          60.8612   89.5950   12.2604 C.3     1  UNL1        0.1162
     25 O          60.9921   90.1024   13.6659 O.3     1  UNL1       -0.3820
     26 H          60.1229   90.3864   13.9894 H       1  UNL1        0.2107
     27 C          60.1024   89.4913    8.3664 C.ar    1  UNL1        0.2272
     28 C          60.2333   89.9987    9.7719 C.ar    1  UNL1        0.0559
     29 C          60.7303   89.0877   10.8549 C.ar    1  UNL1        0.0117
     30 C          61.0964   87.6693   10.5324 C.ar    1  UNL1        0.0559
     31 C          60.9654   87.1619    9.1269 C.ar    1  UNL1        0.2272
     32 N          60.4684   88.0729    8.0439 N.ar    1  UNL1       -0.1767
     33 C          59.3167   89.8554    5.9168 C.3     1  UNL1        0.2542
     34 O          59.6054   90.4025    7.2833 O.3     1  UNL1       -0.4561
     35 O          61.3315   85.7434    8.8044 O.3     1  UNL1       -0.4561
     36 C          62.6246   85.4428    8.1061 C.3     1  UNL1        0.2542
     37 C          59.3892   89.8814   12.2941 C.3     1  UNL1        0.0491
     38 C          58.4042   88.7508   12.2566 C.3     1  UNL1        0.0750
     39 N          57.6836   88.3421   13.5071 N.3     1  UNL1       -0.2702
     40 C          56.2334   87.9633   13.4473 C.3     1  UNL1        0.0897
     41 C          58.4131   88.3121   14.8173 C.3     1  UNL1        0.0897
@<TRIPOS>BOND
     1    33    34    1
     2    34    27    1
     3    27    28   ar
     4    28    29   ar
     5    29    24    1
     6    24    25    1
     7    24    37    1
     8    37    38    1
     9    38    39    1
    10    39    40    1
    11    39    41    1
    12    24     1    1
    13     1     2    1
    14     2     3   ar
    15     3     4   ar
    16     4     5   ar
    17     5     6   ar
    18     6     7    1
    19     6     8   ar
    20     8     9   ar
    21     9    10   ar
    22    10    11   ar
    23    11    12   ar
    24    12    13    1
    25    13    14    1
    26     1    15    1
    27    15    16   ar
    28    16    17   ar
    29    17    18   ar
    30    18    19   ar
    31    19    22    1
    32    22    23    1
    33    19    20   ar
    34    20    21    1
    35    29    30   ar
    36    30    31   ar
    37    31    35    1
    38    35    36    1
    39    31    32   ar
    40    32    27   ar
    41    12     2   ar
    42    20    15   ar
    43    10     4   ar
    44    25    26    1
@<TRIPOS>MOLECULE
*****
 41 44 0 0 0
SMALL
GASTEIGER

@<TRIPOS>ATOM
      1 C          64.5950   91.2537   13.5359 C.3     1  UNL1        0.0799
      2 C          64.2079   90.1193   14.4377 C.ar    1  UNL1        0.0374
      3 C          64.4263   88.7023   13.9965 C.ar    1  UNL1        0.0023
      4 C          64.0393   87.5679   14.8983 C.ar    1  UNL1        0.0181
      5 C          64.2577   86.1510   14.4570 C.ar    1  UNL1        0.0082
      6 C          63.8706   85.0165   15.3589 C.ar    1  UNL1        0.0347
      7 BR         64.0891   83.5996   14.9176 Br      1  UNL1       -0.0490
      8 C          63.2652   85.2990   16.7018 C.ar    1  UNL1        0.0082
      9 C          63.0467   86.7159   17.1430 C.ar    1  UNL1        0.0197
     10 C          63.4338   87.8503   16.2413 C.ar    1  UNL1        0.0844
     11 N          63.2154   89.2672   16.6825 N.ar    1  UNL1       -0.2119
     12 C          63.6024   90.4017   15.7807 C.ar    1  UNL1        0.2211
     13 O          63.3840   91.8186   16.2219 O.3     1  UNL1       -0.4563
     14 C          64.3575   92.4711   17.1582 C.3     1  UNL1        0.2542
     15 C          65.6430   92.2343   13.9718 C.ar    1  UNL1        0.0148
     16 C          65.5883   93.6539   13.4905 C.ar    1  UNL1       -0.0014
     17 C          66.6364   94.6346   13.9264 C.ar    1  UNL1        0.0029
     18 C          67.7391   94.1956   14.8436 C.ar    1  UNL1        0.0392
     19 C          67.7938   92.7759   15.3249 C.ar    1  UNL1        0.1657
     20 C          66.7458   91.7953   14.8890 C.ar    1  UNL1        0.1702
     21 F          66.8005   90.3757   15.3703 F       1  UNL1       -0.2013
     22 O          68.8965   92.3369   16.2421 O.3     1  UNL1       -0.4692
     23 C          70.0495   93.2548   16.5217 C.3     1  UNL1        0.2526
     24 C          63.9340   91.4075   12.1982 C.3     1  UNL1        0.1162
     25 O          62.6645   90.8398   12.7603 O.3     1  UNL1       -0.3820
     26 H          61.9878   90.8112   12.0658 H       1  UNL1        0.2107
     27 C          66.4220   93.7223   10.1485 C.ar    1  UNL1        0.2272
     28 C          65.1525   93.1545   10.7105 C.ar    1  UNL1        0.0559
     29 C          65.2035   91.9753   11.6362 C.ar    1  UNL1        0.0117
     30 C          66.5241   91.3640   11.9998 C.ar    1  UNL1        0.0559
     31 C          67.7936   91.9318   11.4378 C.ar    1  UNL1        0.2272
     32 N          67.7426   93.1109   10.5121 N.ar    1  UNL1       -0.1767
     33 C          67.6230   95.3825    8.5510 C.3     1  UNL1        0.2542
     34 O          66.3710   94.9015    9.2227 O.3     1  UNL1       -0.4561
     35 O          69.1143   91.3203   11.8015 O.3     1  UNL1       -0.4561
     36 C          69.7394   91.6216   13.1313 C.3     1  UNL1        0.2542
     37 C          63.2730   91.5614   10.8605 C.3     1  UNL1        0.0491
     38 C          62.9047   90.3463   10.0618 C.3     1  UNL1        0.0750
     39 N          61.7099   89.5270   10.4506 N.3     1  UNL1       -0.2702
     40 C          60.3386   90.1332   10.4075 C.3     1  UNL1        0.0897
     41 C          61.8864   88.1014   10.8824 C.3     1  UNL1        0.0897
@<TRIPOS>BOND
     1    33    34    1
     2    34    27    1
     3    27    28   ar
     4    28    29   ar
     5    29    24    1
     6    24    25    1
     7    24    37    1
     8    37    38    1
     9    38    39    1
    10    39    40    1
    11    39    41    1
    12    24     1    1
    13     1     2    1
    14     2     3   ar
    15     3     4   ar
    16     4     5   ar
    17     5     6   ar
    18     6     7    1
    19     6     8   ar
    20     8     9   ar
    21     9    10   ar
    22    10    11   ar
    23    11    12   ar
    24    12    13    1
    25    13    14    1
    26     1    15    1
    27    15    16   ar
    28    16    17   ar
    29    17    18   ar
    30    18    19   ar
    31    19    22    1
    32    22    23    1
    33    19    20   ar
    34    20    21    1
    35    29    30   ar
    36    30    31   ar
    37    31    35    1
    38    35    36    1
    39    31    32   ar
    40    32    27   ar
    41    12     2   ar
    42    20    15   ar
    43    10     4   ar
    44    25    26    1
@<TRIPOS>MOLECULE
*****
 41 44 0 0 0
SMALL
GASTEIGER

@<TRIPOS>ATOM
      1 C          64.5870   91.2555   13.5160 C.3     1  UNL1        0.0799
      2 C          64.2016   90.1198   14.4171 C.ar    1  UNL1        0.0374
      3 C          64.4149   88.7034   13.9717 C.ar    1  UNL1        0.0023
      4 C          64.0296   87.5678   14.8727 C.ar    1  UNL1        0.0181
      5 C          64.2428   86.1514   14.4273 C.ar    1  UNL1        0.0082
      6 C          63.8575   85.0158   15.3284 C.ar    1  UNL1        0.0347
      7 BR         64.0707   83.5994   14.8830 Br      1  UNL1       -0.0490
      8 C          63.2589   85.2965   16.6748 C.ar    1  UNL1        0.0082
      9 C          63.0457   86.7129   17.1202 C.ar    1  UNL1        0.0197
     10 C          63.4310   87.8485   16.2192 C.ar    1  UNL1        0.0844
     11 N          63.2177   89.2649   16.6646 N.ar    1  UNL1       -0.2119
     12 C          63.6031   90.4006   15.7635 C.ar    1  UNL1        0.2211
     13 O          63.3898   91.8170   16.2089 O.3     1  UNL1       -0.4563
     14 C          64.3499   92.4537   17.1697 C.3     1  UNL1        0.2542
     15 C          65.6310   92.2394   13.9540 C.ar    1  UNL1        0.0148
     16 C          65.5790   93.6561   13.4639 C.ar    1  UNL1       -0.0014
     17 C          66.6230   94.6401   13.9019 C.ar    1  UNL1        0.0029
     18 C          67.7191   94.2073   14.8300 C.ar    1  UNL1        0.0392
     19 C          67.7711   92.7905   15.3201 C.ar    1  UNL1        0.1657
     20 C          66.7271   91.8066   14.8821 C.ar    1  UNL1        0.1702
     21 F          66.7791   90.3899   15.3722 F       1  UNL1       -0.2013
     22 O          68.8672   92.3577   16.2481 O.3     1  UNL1       -0.4692
     23 C          70.0443   93.2558   16.4889 C.3     1  UNL1        0.2526
     24 C          63.9282   91.4071   12.1770 C.3     1  UNL1        0.1162
     25 O          62.6576   90.8407   12.7379 O.3     1  UNL1       -0.3820
     26 H          61.9821   90.8110   12.0424 H       1  UNL1        0.2107
     27 C          67.7893   91.9295   11.4227 C.ar    1  UNL1        0.2272
     28 C          66.5187   91.3630   11.9836 C.ar    1  UNL1        0.0559
     29 C          65.1988   91.9736   11.6161 C.ar    1  UNL1        0.0117
     30 C          65.1496   93.1507   10.6876 C.ar    1  UNL1        0.0559
     31 C          66.4202   93.7172   10.1267 C.ar    1  UNL1        0.2272
     32 N          67.7401   93.1066   10.4942 N.ar    1  UNL1       -0.1767
     33 C          69.7237   91.6096   13.1273 C.3     1  UNL1        0.2542
     34 O          69.1092   91.3189   11.7902 O.3     1  UNL1       -0.4561
     35 O          66.3709   94.8943    9.1982 O.3     1  UNL1       -0.4561
     36 C          67.6251   95.3768    8.5316 C.3     1  UNL1        0.2542
     37 C          63.2695   91.5588   10.8379 C.3     1  UNL1        0.0491
     38 C          62.8979   90.3424   10.0428 C.3     1  UNL1        0.0750
     39 N          61.7178   89.5112   10.4510 N.3     1  UNL1       -0.2702
     40 C          61.9239   88.1161   10.9620 C.3     1  UNL1        0.0897
     41 C          60.3317   90.0751   10.3480 C.3     1  UNL1        0.0897
@<TRIPOS>BOND
     1    33    34    1
     2    34    27    1
     3    27    28   ar
     4    28    29   ar
     5    29    24    1
     6    24    25    1
     7    24    37    1
     8    37    38    1
     9    38    39    1
    10    39    40    1
    11    39    41    1
    12    24     1    1
    13     1     2    1
    14     2     3   ar
    15     3     4   ar
    16     4     5   ar
    17     5     6   ar
    18     6     7    1
    19     6     8   ar
    20     8     9   ar
    21     9    10   ar
    22    10    11   ar
    23    11    12   ar
    24    12    13    1
    25    13    14    1
    26     1    15    1
    27    15    16   ar
    28    16    17   ar
    29    17    18   ar
    30    18    19   ar
    31    19    22    1
    32    22    23    1
    33    19    20   ar
    34    20    21    1
    35    29    30   ar
    36    30    31   ar
    37    31    35    1
    38    35    36    1
    39    31    32   ar
    40    32    27   ar
    41    12     2   ar
    42    20    15   ar
    43    10     4   ar
    44    25    26    1
@<TRIPOS>MOLECULE
*****
 41 44 0 0 0
SMALL
GASTEIGER

@<TRIPOS>ATOM
      1 C          61.9641   88.1182   10.6552 C.3     1  UNL1        0.0799
      2 C          62.5102   87.1554   11.6676 C.ar    1  UNL1        0.0374
      3 C          62.2164   85.6897   11.5434 C.ar    1  UNL1        0.0023
      4 C          62.7624   84.7269   12.5557 C.ar    1  UNL1        0.0181
      5 C          62.4686   83.2612   12.4316 C.ar    1  UNL1        0.0082
      6 C          63.0147   82.2984   13.4440 C.ar    1  UNL1        0.0347
      7 BR         62.7209   80.8328   13.3198 Br      1  UNL1       -0.0490
      8 C          63.8546   82.8014   14.5804 C.ar    1  UNL1        0.0082
      9 C          64.1484   84.2670   14.7046 C.ar    1  UNL1        0.0197
     10 C          63.6023   85.2298   13.6923 C.ar    1  UNL1        0.0844
     11 N          63.8962   86.6955   13.8164 N.ar    1  UNL1       -0.2119
     12 C          63.3501   87.6583   12.8040 C.ar    1  UNL1        0.2211
     13 O          63.6439   89.1240   12.9282 O.3     1  UNL1       -0.4563
     14 C          63.5546   89.7961   14.2663 C.3     1  UNL1        0.2542
     15 C          61.1038   87.6184    9.5327 C.ar    1  UNL1        0.0148
     16 C          59.8026   88.2983    9.2250 C.ar    1  UNL1       -0.0014
     17 C          58.9422   87.7986    8.1025 C.ar    1  UNL1        0.0029
     18 C          59.3830   86.6188    7.2877 C.ar    1  UNL1        0.0392
     19 C          60.6843   85.9389    7.5954 C.ar    1  UNL1        0.1657
     20 C          61.5446   86.4387    8.7178 C.ar    1  UNL1        0.1702
     21 F          62.8457   85.7588    9.0255 F       1  UNL1       -0.2013
     22 O          61.1251   84.7592    6.7805 O.3     1  UNL1       -0.4692
     23 C          62.5044   84.7277    6.1917 C.3     1  UNL1        0.2526
     24 C          62.2783   89.5808   10.7653 C.3     1  UNL1        0.1162
     25 O          63.6379   89.3326   10.1822 O.3     1  UNL1       -0.3820
     26 H          64.1226   90.1708   10.1237 H       1  UNL1        0.2107
     27 C          58.8267   91.3467   11.6126 C.ar    1  UNL1        0.2272
     28 C          60.1863   91.0985   11.0295 C.ar    1  UNL1        0.0559
     29 C          60.9188   89.8290   11.3484 C.ar    1  UNL1        0.0117
     30 C          60.2917   88.8077   12.2505 C.ar    1  UNL1        0.0559
     31 C          58.9322   89.0559   12.8336 C.ar    1  UNL1        0.2272
     32 N          58.1997   90.3254   12.5147 N.ar    1  UNL1       -0.1767
     33 C          58.1435   93.7710   12.2497 C.3     1  UNL1        0.2542
     34 O          58.0942   92.6163   11.2936 O.3     1  UNL1       -0.4561
     35 O          58.3052   88.0345   13.7357 O.3     1  UNL1       -0.4561
     36 C          56.8244   87.8001   13.6880 C.3     1  UNL1        0.2542
     37 C          62.5926   91.0433   10.8755 C.3     1  UNL1        0.0491
     38 C          63.7928   91.6074   10.1746 C.3     1  UNL1        0.0750
     39 N          64.8739   92.2834   10.9647 N.3     1  UNL1       -0.2702
     40 C          65.9108   93.1094   10.2631 C.3     1  UNL1        0.0897
     41 C          64.9181   92.1333   12.4565 C.3     1  UNL1        0.0897
@<TRIPOS>BOND
     1    33    34    1
     2    34    27    1
     3    27    28   ar
     4    28    29   ar
     5    29    24    1
     6    24    25    1
     7    24    37    1
     8    37    38    1
     9    38    39    1
    10    39    40    1
    11    39    41    1
    12    24     1    1
    13     1     2    1
    14     2     3   ar
    15     3     4   ar
    16     4     5   ar
    17     5     6   ar
    18     6     7    1
    19     6     8   ar
    20     8     9   ar
    21     9    10   ar
    22    10    11   ar
    23    11    12   ar
    24    12    13    1
    25    13    14    1
    26     1    15    1
    27    15    16   ar
    28    16    17   ar
    29    17    18   ar
    30    18    19   ar
    31    19    22    1
    32    22    23    1
    33    19    20   ar
    34    20    21    1
    35    29    30   ar
    36    30    31   ar
    37    31    35    1
    38    35    36    1
    39    31    32   ar
    40    32    27   ar
    41    12     2   ar
    42    20    15   ar
    43    10     4   ar
    44    25    26    1
@<TRIPOS>MOLECULE
*****
 41 44 0 0 0
SMALL
GASTEIGER

@<TRIPOS>ATOM
      1 C          61.9691   88.1261   10.6444 C.3     1  UNL1        0.0799
      2 C          62.5148   87.1771   11.6699 C.ar    1  UNL1        0.0374
      3 C          62.2300   85.7085   11.5595 C.ar    1  UNL1        0.0023
      4 C          62.7757   84.7596   12.5850 C.ar    1  UNL1        0.0181
      5 C          62.4908   83.2910   12.4747 C.ar    1  UNL1        0.0082
      6 C          63.0366   82.3420   13.5002 C.ar    1  UNL1        0.0347
      7 BR         62.7518   80.8734   13.3898 Br      1  UNL1       -0.0490
      8 C          63.8671   82.8616   14.6361 C.ar    1  UNL1        0.0082
      9 C          64.1519   84.3302   14.7464 C.ar    1  UNL1        0.0197
     10 C          63.6062   85.2791   13.7210 C.ar    1  UNL1        0.0844
     11 N          63.8911   86.7477   13.8313 N.ar    1  UNL1       -0.2119
     12 C          63.3453   87.6967   12.8058 C.ar    1  UNL1        0.2211
     13 O          63.6301   89.1653   12.9161 O.3     1  UNL1       -0.4563
     14 C          63.4234   89.8732   14.2224 C.3     1  UNL1        0.2542
     15 C          61.1257   87.6084    9.5171 C.ar    1  UNL1        0.0148
     16 C          59.8267   88.2797    9.1827 C.ar    1  UNL1       -0.0014
     17 C          58.9833   87.7620    8.0554 C.ar    1  UNL1        0.0029
     18 C          59.4390   86.5730    7.2625 C.ar    1  UNL1        0.0392
     19 C          60.7381   85.9017    7.5970 C.ar    1  UNL1        0.1657
     20 C          61.5814   86.4194    8.7242 C.ar    1  UNL1        0.1702
     21 F          62.8804   85.7481    9.0586 F       1  UNL1       -0.2013
     22 O          61.1938   84.7127    6.8041 O.3     1  UNL1       -0.4692
     23 C          62.4964   84.7608    6.0618 C.3     1  UNL1        0.2526
     24 C          62.2667   89.5927   10.7461 C.3     1  UNL1        0.1162
     25 O          63.6278   89.3570   10.1615 O.3     1  UNL1       -0.3820
     26 H          64.1027   90.2004   10.0975 H       1  UNL1        0.2107
     27 C          58.9174   89.0261   12.7983 C.ar    1  UNL1        0.2272
     28 C          60.2786   88.7904   12.2136 C.ar    1  UNL1        0.0559
     29 C          60.9056   89.8284   11.3308 C.ar    1  UNL1        0.0117
     30 C          60.1715   91.1019   11.0325 C.ar    1  UNL1        0.0559
     31 C          58.8103   91.3376   11.6172 C.ar    1  UNL1        0.2272
     32 N          58.1833   90.2997   12.5000 N.ar    1  UNL1       -0.1767
     33 C          56.8030   87.7944   13.6714 C.3     1  UNL1        0.2542
     34 O          58.2904   87.9881   13.6812 O.3     1  UNL1       -0.4561
     35 O          58.0762   92.6113   11.3189 O.3     1  UNL1       -0.4561
     36 C          58.2035   93.7847   12.2446 C.3     1  UNL1        0.2542
     37 C          62.5643   91.0594   10.8479 C.3     1  UNL1        0.0491
     38 C          63.7556   91.6338   10.1402 C.3     1  UNL1        0.0750
     39 N          64.8036   92.3751   10.9163 N.3     1  UNL1       -0.2702
     40 C          65.6675   93.3907   10.2292 C.3     1  UNL1        0.0897
     41 C          64.9875   92.1008   12.3795 C.3     1  UNL1        0.0897
@<TRIPOS>BOND
     1    33    34    1
     2    34    27    1
     3    27    28   ar
     4    28    29   ar
     5    29    24    1
     6    24    25    1
     7    24    37    1
     8    37    38    1
     9    38    39    1
    10    39    40    1
    11    39    41    1
    12    24     1    1
    13     1     2    1
    14     2     3   ar
    15     3     4   ar
    16     4     5   ar
    17     5     6   ar
    18     6     7    1
    19     6     8   ar
    20     8     9   ar
    21     9    10   ar
    22    10    11   ar
    23    11    12   ar
    24    12    13    1
    25    13    14    1
    26     1    15    1
    27    15    16   ar
    28    16    17   ar
    29    17    18   ar
    30    18    19   ar
    31    19    22    1
    32    22    23    1
    33    19    20   ar
    34    20    21    1
    35    29    30   ar
    36    30    31   ar
    37    31    35    1
    38    35    36    1
    39    31    32   ar
    40    32    27   ar
    41    12     2   ar
    42    20    15   ar
    43    10     4   ar
    44    25    26    1
