@<TRIPOS>MOLECULE
*****
 36 41 0 0 0
SMALL
GASTEIGER

@<TRIPOS>ATOM
      1 C          63.1128   91.6917    9.3943 C.3     1  UNL1        0.1306
      2 N          63.9010   91.7270   10.6701 N.ar    1  UNL1       -0.3216
      3 C          64.8759   92.7927   11.0748 C.ar    1  UNL1        0.0658
      4 C          65.3306   94.0487   10.3924 C.ar    1  UNL1        0.0380
      5 C          66.3395   94.9391   11.0551 C.ar    1  UNL1        0.1018
      6 N          66.8936   94.5737   12.4002 N.ar    1  UNL1       -0.2290
      7 C          66.4389   93.3177   13.0826 C.ar    1  UNL1        0.1347
      8 C          65.4300   92.4272   12.4200 C.ar    1  UNL1        0.0666
      9 C          64.7976   91.1357   12.8464 C.ar    1  UNL1        0.1056
     10 N          64.9601   90.2977   14.0799 N.ar    1  UNL1       -0.2223
     11 C          64.1777   89.0270   14.2318 C.ar    1  UNL1        0.2001
     12 N          63.2326   88.5943   13.1504 N.ar    1  UNL1       -0.2075
     13 C          63.0701   89.4322   11.9169 C.ar    1  UNL1        0.1509
     14 C          63.8526   90.7029   11.7650 C.ar    1  UNL1        0.1100
     15 N          66.9931   92.9522   14.4278 N.pl3   1  UNL1       -0.2880
     16 C          68.4632   92.7031   14.5908 C.3     1  UNL1        0.1242
     17 C          69.0174   92.3376   15.9359 C.3     1  UNL1        0.1636
     18 O          68.1014   92.2213   17.1180 O.3     1  UNL1       -0.3501
     19 C          66.6313   92.4704   16.9550 C.3     1  UNL1        0.1636
     20 C          66.0771   92.8359   15.6099 C.3     1  UNL1        0.1242
     21 N          62.1251   88.9994   10.8354 N.pl3   1  UNL1       -0.2892
     22 C          60.9140   89.8271   10.5223 C.3     1  UNL1        0.1095
     23 C          59.9689   89.3942    9.4408 C.3     1  UNL1        0.0939
     24 N          60.2351   88.1338    8.6724 N.3     1  UNL1       -0.2695
     25 C          61.4463   87.3061    8.9855 C.3     1  UNL1        0.0939
     26 C          62.3912   87.7389   10.0670 C.3     1  UNL1        0.1095
     27 C          59.2901   87.7010    7.5909 C.3     1  UNL1        0.0769
     28 C          58.2630   88.6593    7.0647 C.3     1  UNL1        0.0437
     29 C          58.6765   89.7750    6.1514 C.ar    1  UNL1       -0.0184
     30 C          57.6513   90.7404    5.6349 C.ar    1  UNL1       -0.0018
     31 C          58.0649   91.8562    4.7216 C.ar    1  UNL1        0.0316
     32 C          59.5036   92.0066    4.3249 C.ar    1  UNL1        0.1674
     33 F          59.9171   93.1224    3.4117 F       1  UNL1       -0.2018
     34 C          60.5289   91.0411    4.8415 C.ar    1  UNL1        0.1671
     35 F          61.9676   91.1915    4.4448 F       1  UNL1       -0.2018
     36 C          60.1153   89.9254    5.7547 C.ar    1  UNL1        0.0277
@<TRIPOS>BOND
     1     1     2    1
     2     2     3   ar
     3     3     4   ar
     4     4     5   ar
     5     5     6   ar
     6     6     7   ar
     7     7    15    1
     8    15    16    1
     9    16    17    1
    10    17    18    1
    11    18    19    1
    12    19    20    1
    13     7     8   ar
    14     8     9   ar
    15     9    10   ar
    16    10    11   ar
    17    11    12   ar
    18    12    13   ar
    19    13    21    1
    20    21    22    1
    21    22    23    1
    22    23    24    1
    23    24    27    1
    24    27    28    1
    25    28    29    1
    26    29    30   ar
    27    30    31   ar
    28    31    32   ar
    29    32    33    1
    30    32    34   ar
    31    34    35    1
    32    34    36   ar
    33    24    25    1
    34    25    26    1
    35    13    14   ar
    36    14     2   ar
    37     8     3   ar
    38    14     9   ar
    39    20    15    1
    40    26    21    1
    41    36    29   ar
@<TRIPOS>MOLECULE
*****
 36 41 0 0 0
SMALL
GASTEIGER

@<TRIPOS>ATOM
      1 C          63.6673   94.2671    2.4027 C.3     1  UNL1        0.1306
      2 N          63.5706   94.5029    0.9245 N.ar    1  UNL1       -0.3216
      3 C          64.5126   95.3292    0.1000 C.ar    1  UNL1        0.0658
      4 C          65.7403   96.1118    0.4610 C.ar    1  UNL1        0.0380
      5 C          66.4945   96.8558   -0.6008 C.ar    1  UNL1        0.1018
      6 N          66.0211   96.8173   -2.0236 N.ar    1  UNL1       -0.2290
      7 C          64.7934   96.0348   -2.3846 C.ar    1  UNL1        0.1347
      8 C          64.0391   95.2907   -1.3228 C.ar    1  UNL1        0.0666
      9 C          62.8045   94.4406   -1.3776 C.ar    1  UNL1        0.1056
     10 N          61.9065   94.0469   -2.5127 N.ar    1  UNL1       -0.2223
     11 C          60.7190   93.1664   -2.2590 C.ar    1  UNL1        0.2001
     12 N          60.4294   92.6794   -0.8701 N.ar    1  UNL1       -0.2075
     13 C          61.3274   93.0731    0.2650 C.ar    1  UNL1        0.1509
     14 C          62.5149   93.9537    0.0113 C.ar    1  UNL1        0.1100
     15 N          64.3199   95.9963   -3.8074 N.pl3   1  UNL1       -0.2880
     16 C          63.1592   96.8448   -4.2348 C.3     1  UNL1        0.1242
     17 C          62.6857   96.8063   -5.6576 C.3     1  UNL1        0.1636
     18 O          63.3729   95.9193   -6.6530 O.3     1  UNL1       -0.3501
     19 C          64.5336   95.0707   -6.2256 C.3     1  UNL1        0.1636
     20 C          65.0071   95.1092   -4.8028 C.3     1  UNL1        0.1242
     21 N          61.0378   92.5862    1.6539 N.pl3   1  UNL1       -0.2892
     22 C          62.0246   91.7050    2.3607 C.3     1  UNL1        0.1095
     23 C          61.7350   91.2181    3.7497 C.3     1  UNL1        0.0939
     24 N          60.4585   91.6124    4.4317 N.3     1  UNL1       -0.2695
     25 C          59.4717   92.4936    3.7249 C.3     1  UNL1        0.0939
     26 C          59.7613   92.9805    2.3361 C.3     1  UNL1        0.1095
     27 C          60.1689   91.1254    5.8206 C.3     1  UNL1        0.0769
     28 C          59.3929   89.8581    6.0245 C.3     1  UNL1        0.0437
     29 C          59.6830   88.9831    7.2078 C.ar    1  UNL1       -0.0184
     30 C          59.4717   87.5011    7.1144 C.ar    1  UNL1       -0.0018
     31 C          59.7619   86.6261    8.2978 C.ar    1  UNL1        0.0316
     32 C          60.2633   87.2332    9.5745 C.ar    1  UNL1        0.1674
     33 F          60.5535   86.3582   10.7578 F       1  UNL1       -0.2018
     34 C          60.4746   88.7153    9.6679 C.ar    1  UNL1        0.1671
     35 F          60.9760   89.3224   10.9446 F       1  UNL1       -0.2018
     36 C          60.1845   89.5902    8.4846 C.ar    1  UNL1        0.0277
@<TRIPOS>BOND
     1     1     2    1
     2     2     3   ar
     3     3     4   ar
     4     4     5   ar
     5     5     6   ar
     6     6     7   ar
     7     7    15    1
     8    15    16    1
     9    16    17    1
    10    17    18    1
    11    18    19    1
    12    19    20    1
    13     7     8   ar
    14     8     9   ar
    15     9    10   ar
    16    10    11   ar
    17    11    12   ar
    18    12    13   ar
    19    13    21    1
    20    21    22    1
    21    22    23    1
    22    23    24    1
    23    24    27    1
    24    27    28    1
    25    28    29    1
    26    29    30   ar
    27    30    31   ar
    28    31    32   ar
    29    32    33    1
    30    32    34   ar
    31    34    35    1
    32    34    36   ar
    33    24    25    1
    34    25    26    1
    35    13    14   ar
    36    14     2   ar
    37     8     3   ar
    38    14     9   ar
    39    20    15    1
    40    26    21    1
    41    36    29   ar
@<TRIPOS>MOLECULE
*****
 36 41 0 0 0
SMALL
GASTEIGER

@<TRIPOS>ATOM
      1 C          59.5787   94.4127   -5.7658 C.3     1  UNL1        0.1306
      2 N          60.2807   94.4660   -4.4413 N.ar    1  UNL1       -0.3216
      3 C          61.7228   94.1354   -4.1939 C.ar    1  UNL1        0.0658
      4 C          62.8213   93.6867   -5.1114 C.ar    1  UNL1        0.0380
      5 C          64.1944   93.4270   -4.5664 C.ar    1  UNL1        0.1018
      6 N          64.4690   93.6159   -3.1039 N.ar    1  UNL1       -0.2290
      7 C          63.3704   94.0645   -2.1864 C.ar    1  UNL1        0.1347
      8 C          61.9973   94.3242   -2.7314 C.ar    1  UNL1        0.0666
      9 C          60.7249   94.7716   -2.0750 C.ar    1  UNL1        0.1056
     10 N          60.3953   95.1105   -0.6514 N.ar    1  UNL1       -0.2223
     11 C          59.0048   95.5370   -0.2847 C.ar    1  UNL1        0.2001
     12 N          57.9438   95.6246   -1.3414 N.ar    1  UNL1       -0.2075
     13 C          58.2735   95.2857   -2.7650 C.ar    1  UNL1        0.1509
     14 C          59.6640   94.8592   -3.1317 C.ar    1  UNL1        0.1100
     15 N          63.6450   94.2534   -0.7239 N.pl3   1  UNL1       -0.2880
     16 C          63.0330   93.3224    0.2804 C.3     1  UNL1        0.1242
     17 C          63.3076   93.5113    1.7430 C.3     1  UNL1        0.1636
     18 O          64.1940   94.6312    2.2011 O.3     1  UNL1       -0.3501
     19 C          64.8060   95.5621    1.1968 C.3     1  UNL1        0.1636
     20 C          64.5314   95.3733   -0.2657 C.3     1  UNL1        0.1242
     21 N          57.2125   95.3733   -3.8217 N.pl3   1  UNL1       -0.2892
     22 C          57.1524   96.5678   -4.7269 C.3     1  UNL1        0.1095
     23 C          56.0914   96.6553   -5.7837 C.3     1  UNL1        0.0939
     24 N          55.0906   95.5483   -5.9352 N.3     1  UNL1       -0.2695
     25 C          55.1508   94.3537   -5.0300 C.3     1  UNL1        0.0939
     26 C          56.2117   94.2662   -3.9733 C.3     1  UNL1        0.1095
     27 C          54.0297   95.6359   -6.9920 C.3     1  UNL1        0.0769
     28 C          53.1616   96.8558   -7.0840 C.3     1  UNL1        0.0437
     29 C          51.7475   96.8094   -6.5858 C.ar    1  UNL1       -0.0184
     30 C          50.6115   96.7170   -7.5609 C.ar    1  UNL1       -0.0018
     31 C          49.1974   96.6706   -7.0627 C.ar    1  UNL1        0.0316
     32 C          48.9194   96.7165   -5.5894 C.ar    1  UNL1        0.1674
     33 F          47.5053   96.6701   -5.0912 F       1  UNL1       -0.2018
     34 C          50.0555   96.8088   -4.6143 C.ar    1  UNL1        0.1671
     35 F          49.7775   96.8547   -3.1410 F       1  UNL1       -0.2018
     36 C          51.4695   96.8553   -5.1125 C.ar    1  UNL1        0.0277
@<TRIPOS>BOND
     1     1     2    1
     2     2     3   ar
     3     3     4   ar
     4     4     5   ar
     5     5     6   ar
     6     6     7   ar
     7     7    15    1
     8    15    16    1
     9    16    17    1
    10    17    18    1
    11    18    19    1
    12    19    20    1
    13     7     8   ar
    14     8     9   ar
    15     9    10   ar
    16    10    11   ar
    17    11    12   ar
    18    12    13   ar
    19    13    21    1
    20    21    22    1
    21    22    23    1
    22    23    24    1
    23    24    27    1
    24    27    28    1
    25    28    29    1
    26    29    30   ar
    27    30    31   ar
    28    31    32   ar
    29    32    33    1
    30    32    34   ar
    31    34    35    1
    32    34    36   ar
    33    24    25    1
    34    25    26    1
    35    13    14   ar
    36    14     2   ar
    37     8     3   ar
    38    14     9   ar
    39    20    15    1
    40    26    21    1
    41    36    29   ar
@<TRIPOS>MOLECULE
*****
 36 41 0 0 0
SMALL
GASTEIGER

@<TRIPOS>ATOM
      1 C          61.9875   90.6699   10.1211 C.3     1  UNL1        0.1306
      2 N          62.3900   89.5754   11.0645 N.ar    1  UNL1       -0.3216
      3 C          63.2590   89.7319   12.2771 C.ar    1  UNL1        0.0658
      4 C          63.9399   90.9265   12.8765 C.ar    1  UNL1        0.0380
      5 C          64.7621   90.7747   14.1218 C.ar    1  UNL1        0.1018
      6 N          64.9033   89.4282   14.7678 N.ar    1  UNL1       -0.2290
      7 C          64.2224   88.2337   14.1684 C.ar    1  UNL1        0.1347
      8 C          63.4003   88.3855   12.9230 C.ar    1  UNL1        0.0666
      9 C          62.6186   87.3969   12.1096 C.ar    1  UNL1        0.1056
     10 N          62.3946   85.9221   12.2665 N.ar    1  UNL1       -0.2223
     11 C          61.5463   85.1826   11.2747 C.ar    1  UNL1        0.2001
     12 N          60.9219   85.9180   10.1261 N.ar    1  UNL1       -0.2075
     13 C          61.1459   87.3928    9.9692 C.ar    1  UNL1        0.1509
     14 C          61.9942   88.1323   10.9610 C.ar    1  UNL1        0.1100
     15 N          64.3637   86.8873   14.8143 N.pl3   1  UNL1       -0.2880
     16 C          65.2396   85.8431   14.1878 C.3     1  UNL1        0.1242
     17 C          65.3808   84.4967   14.8338 C.3     1  UNL1        0.1636
     18 O          64.6462   84.1945   16.1061 O.3     1  UNL1       -0.3501
     19 C          63.7704   85.2386   16.7326 C.3     1  UNL1        0.1636
     20 C          63.6291   86.5851   16.0867 C.3     1  UNL1        0.1242
     21 N          60.5215   88.1282    8.8206 N.pl3   1  UNL1       -0.2892
     22 C          60.0750   87.3759    7.6023 C.3     1  UNL1        0.1095
     23 C          59.4506   88.1113    6.4536 C.3     1  UNL1        0.0939
     24 N          59.2727   89.5991    6.5234 N.3     1  UNL1       -0.2695
     25 C          59.7192   90.3515    7.7419 C.3     1  UNL1        0.0939
     26 C          60.3436   89.6160    8.8904 C.3     1  UNL1        0.1095
     27 C          58.6483   90.3345    5.3748 C.3     1  UNL1        0.0769
     28 C          59.0838   91.7337    5.0544 C.3     1  UNL1        0.0437
     29 C          60.2382   91.9657    4.1252 C.ar    1  UNL1       -0.0184
     30 C          60.1203   92.9719    3.0192 C.ar    1  UNL1       -0.0018
     31 C          61.2749   93.2039    2.0900 C.ar    1  UNL1        0.0316
     32 C          62.5473   92.4296    2.2669 C.ar    1  UNL1        0.1674
     33 F          63.7017   92.6615    1.3378 F       1  UNL1       -0.2018
     34 C          62.6652   91.4232    3.3730 C.ar    1  UNL1        0.1671
     35 F          63.9376   90.6489    3.5499 F       1  UNL1       -0.2018
     36 C          61.5107   91.1913    4.3021 C.ar    1  UNL1        0.0277
@<TRIPOS>BOND
     1     1     2    1
     2     2     3   ar
     3     3     4   ar
     4     4     5   ar
     5     5     6   ar
     6     6     7   ar
     7     7    15    1
     8    15    16    1
     9    16    17    1
    10    17    18    1
    11    18    19    1
    12    19    20    1
    13     7     8   ar
    14     8     9   ar
    15     9    10   ar
    16    10    11   ar
    17    11    12   ar
    18    12    13   ar
    19    13    21    1
    20    21    22    1
    21    22    23    1
    22    23    24    1
    23    24    27    1
    24    27    28    1
    25    28    29    1
    26    29    30   ar
    27    30    31   ar
    28    31    32   ar
    29    32    33    1
    30    32    34   ar
    31    34    35    1
    32    34    36   ar
    33    24    25    1
    34    25    26    1
    35    13    14   ar
    36    14     2   ar
    37     8     3   ar
    38    14     9   ar
    39    20    15    1
    40    26    21    1
    41    36    29   ar
