@<TRIPOS>MOLECULE
*****
 54 60 0 0 0
SMALL
GASTEIGER

@<TRIPOS>ATOM
      1 N          62.4524   84.2452    9.2311 N.3     1  UNL1       -0.1862
      2 C          61.6604   84.3755    7.9640 C.3     1  UNL1        0.1775
      3 C          60.8929   85.6338    7.6852 C.2     1  UNL1        0.2452
      4 O          60.1009   85.7641    6.4180 O.2     1  UNL1       -0.2732
      5 N          60.9176   86.7619    8.6735 N.am    1  UNL1       -0.2541
      6 C          60.1501   88.0202    8.3948 C.3     1  UNL1        0.1577
      7 C          60.1747   89.1482    9.3831 C.2     1  UNL1        0.2445
      8 O          59.4073   90.4065    9.1043 O.2     1  UNL1       -0.2731
      9 N          60.9668   89.0179   10.6503 N.am    1  UNL1       -0.2705
     10 C          61.7342   87.7596   10.9291 C.3     1  UNL1        0.1359
     11 C          61.7096   86.6316    9.9407 C.3     1  UNL1        0.1908
     12 N          62.4770   85.3732   10.2195 N.am    1  UNL1       -0.1863
     13 C          63.2690   85.2430   11.4867 C.2     1  UNL1        0.3191
     14 O          63.2936   86.3710   12.4750 O.2     1  UNL1       -0.2512
     15 N          64.0364   83.9847   11.7655 N.am    1  UNL1       -0.2836
     16 H          64.0203   83.2443   11.1168 H       1  UNL1        0.1513
     17 C          63.2198   82.9869    9.5099 C.3     1  UNL1        0.1188
     18 C          63.1664   80.5441   10.3929 C.2     1  UNL1       -0.0034
     19 C          62.6535   81.9530   10.4374 C.2     1  UNL1       -0.0071
     20 C          59.3581   88.1505    7.1276 C.3     1  UNL1        0.0556
     21 C          59.4021   89.4286    6.3438 C.ar    1  UNL1       -0.0198
     22 C          60.7109   89.9452    5.8243 C.ar    1  UNL1       -0.0011
     23 C          60.7549   91.2233    5.0404 C.ar    1  UNL1        0.0363
     24 C          59.4899   91.9848    4.7760 C.ar    1  UNL1        0.1337
     25 O          59.5339   93.2630    3.9921 O.3     1  UNL1       -0.5055
     26 C          58.1810   91.4683    5.2955 C.ar    1  UNL1        0.0363
     27 C          58.1370   90.1901    6.0794 C.ar    1  UNL1       -0.0011
     28 H          60.3515   93.5857    3.6676 H       1  UNL1        0.2922
     29 C          60.9914   90.1460   11.6387 C.3     1  UNL1        0.1217
     30 C          62.1781   90.3298   12.5377 C.ar    1  UNL1        0.0135
     31 C          62.1202   89.8608   13.9613 C.ar    1  UNL1       -0.0012
     32 C          63.3068   90.0445   14.8603 C.ar    1  UNL1       -0.0002
     33 C          64.5512   90.6972   14.3357 C.ar    1  UNL1        0.0016
     34 C          64.6091   91.1662   12.9120 C.ar    1  UNL1        0.0214
     35 C          65.6908   91.8389   12.1200 C.ar    1  UNL1        0.0721
     36 C          65.1728   92.0709   10.7316 C.ar    1  UNL1        0.0805
     37 N          63.7709   91.5416   10.6655 N.ar    1  UNL1       -0.3241
     38 C          62.8747   91.5670    9.4629 C.3     1  UNL1        0.1305
     39 C          63.4225   90.9825   12.0130 C.ar    1  UNL1        0.0577
     40 C          67.0518   92.2138   12.6275 C.2     1  UNL1        0.2507
     41 O          68.2238   92.2270   11.6914 O.2     1  UNL1       -0.2699
     42 N          67.2406   92.5755   14.0709 N.am    1  UNL1       -0.2709
     43 C          68.6015   92.9504   14.5784 C.3     1  UNL1        0.1258
     44 C          68.7903   93.3121   16.0218 C.3     1  UNL1        0.1637
     45 O          67.6183   93.2990   16.9578 O.3     1  UNL1       -0.3501
     46 C          66.2574   92.9241   16.4503 C.3     1  UNL1        0.1637
     47 C          66.0685   92.5624   15.0069 C.3     1  UNL1        0.1258
     48 C          64.8285   83.8544   13.0326 C.3     1  UNL1        0.1177
     49 C          64.3103   84.4544   14.3060 C.ar    1  UNL1       -0.0025
     50 C          63.1260   83.8441   14.9951 C.ar    1  UNL1       -0.0026
     51 C          62.6078   84.4440   16.2685 C.ar    1  UNL1       -0.0003
     52 C          63.2740   85.6543   16.8528 C.ar    1  UNL1       -0.0000
     53 C          64.4583   86.2647   16.1637 C.ar    1  UNL1       -0.0003
     54 C          64.9765   85.6647   14.8903 C.ar    1  UNL1       -0.0026
@<TRIPOS>BOND
     1    18    19    2
     2    19    17    1
     3    17     1    1
     4     1     2    1
     5     2     3    1
     6     3     4    2
     7     3     5   am
     8     5     6    1
     9     6    20    1
    10    20    21    1
    11    21    22   ar
    12    22    23   ar
    13    23    24   ar
    14    24    25    1
    15    24    26   ar
    16    26    27   ar
    17     6     7    1
    18     7     8    2
    19     7     9   am
    20     9    29    1
    21    29    30    1
    22    30    31   ar
    23    31    32   ar
    24    32    33   ar
    25    33    34   ar
    26    34    35   ar
    27    35    40    1
    28    40    41    2
    29    40    42   am
    30    42    43    1
    31    43    44    1
    32    44    45    1
    33    45    46    1
    34    46    47    1
    35    35    36   ar
    36    36    37   ar
    37    37    38    1
    38    37    39   ar
    39     9    10    1
    40    11    10    1
    41    11    12    1
    42    12    13   am
    43    13    14    2
    44    13    15   am
    45    15    48    1
    46    48    49    1
    47    49    50   ar
    48    50    51   ar
    49    51    52   ar
    50    52    53   ar
    51    53    54   ar
    52    12     1    1
    53    54    49   ar
    54    11     5    1
    55    27    21   ar
    56    39    30   ar
    57    39    34   ar
    58    47    42    1
    59    25    28    1
    60    15    16    1
@<TRIPOS>MOLECULE
*****
 54 60 0 0 0
SMALL
GASTEIGER

@<TRIPOS>ATOM
      1 N          62.7888   84.0984    9.6300 N.3     1  UNL1       -0.1862
      2 C          62.0901   84.1306    8.3030 C.3     1  UNL1        0.1775
      3 C          61.3670   85.3700    7.8661 C.2     1  UNL1        0.2452
      4 O          60.6683   85.4023    6.5390 O.2     1  UNL1       -0.2732
      5 N          61.3425   86.5772    8.7561 N.am    1  UNL1       -0.2541
      6 C          60.6193   87.8166    8.3191 C.3     1  UNL1        0.1577
      7 C          60.5948   89.0237    9.2091 C.2     1  UNL1        0.2445
      8 O          59.8716   90.2631    8.7722 O.2     1  UNL1       -0.2731
      9 N          61.2935   88.9915   10.5362 N.am    1  UNL1       -0.2705
     10 C          62.0166   87.7521   10.9731 C.3     1  UNL1        0.1359
     11 C          62.0411   86.5449   10.0830 C.3     1  UNL1        0.1908
     12 N          62.7642   85.3055   10.5200 N.am    1  UNL1       -0.1863
     13 C          63.4629   85.2733   11.8470 C.2     1  UNL1        0.3191
     14 O          63.4384   86.4804   12.7370 O.2     1  UNL1       -0.2512
     15 N          64.1861   84.0339   12.2839 N.am    1  UNL1       -0.2836
     16 H          64.2021   83.2416   11.6998 H       1  UNL1        0.1513
     17 C          63.5119   82.8589   10.0669 C.3     1  UNL1        0.1188
     18 C          62.7551   81.1555   11.8767 C.2     1  UNL1       -0.0034
     19 C          62.7360   81.6356   10.4557 C.2     1  UNL1       -0.0071
     20 C          59.9207   87.8489    6.9922 C.3     1  UNL1        0.0556
     21 C          59.7093   89.1560    6.2875 C.ar    1  UNL1       -0.0198
     22 C          58.3353   89.7525    6.2096 C.ar    1  UNL1       -0.0011
     23 C          58.1239   91.0597    5.5049 C.ar    1  UNL1        0.0363
     24 C          59.2866   91.7703    4.8780 C.ar    1  UNL1        0.1337
     25 O          59.0752   93.0775    4.1732 O.3     1  UNL1       -0.5055
     26 C          60.6608   91.1738    4.9558 C.ar    1  UNL1        0.0363
     27 C          60.8721   89.8667    5.6605 C.ar    1  UNL1       -0.0011
     28 H          58.2169   93.4501    4.1246 H       1  UNL1        0.2922
     29 C          61.2689   90.1987   11.4262 C.3     1  UNL1        0.1217
     30 C          62.5346   90.9570   11.6966 C.ar    1  UNL1        0.0135
     31 C          63.1949   91.7314   10.5946 C.ar    1  UNL1       -0.0012
     32 C          64.4605   92.4897   10.8650 C.ar    1  UNL1       -0.0002
     33 C          65.0659   92.4735   12.2373 C.ar    1  UNL1        0.0016
     34 C          64.4056   91.6991   13.3392 C.ar    1  UNL1        0.0214
     35 C          64.7666   91.4994   14.7814 C.ar    1  UNL1        0.0721
     36 C          63.7240   90.6176   15.4023 C.ar    1  UNL1        0.0805
     37 N          62.7188   90.2724   14.3439 N.ar    1  UNL1       -0.3241
     38 C          61.5053   89.4102   14.5282 C.3     1  UNL1        0.1305
     39 C          63.1400   90.9408   13.0689 C.ar    1  UNL1        0.0577
     40 C          65.9605   92.0795   15.4800 C.2     1  UNL1        0.2507
     41 O          65.8166   92.6567   16.8570 O.2     1  UNL1       -0.2699
     42 N          67.2983   92.0825   14.8015 N.am    1  UNL1       -0.2709
     43 C          68.4923   92.6626   15.5000 C.3     1  UNL1        0.1258
     44 C          69.8300   92.6656   14.8216 C.3     1  UNL1        0.1637
     45 O          69.9739   92.0884   13.4445 O.3     1  UNL1       -0.3501
     46 C          68.7799   91.5083   12.7460 C.3     1  UNL1        0.1637
     47 C          67.4421   91.5053   13.4245 C.3     1  UNL1        0.1258
     48 C          64.8847   84.0016   13.6109 C.3     1  UNL1        0.1177
     49 C          64.2688   84.6784   14.7994 C.ar    1  UNL1       -0.0025
     50 C          63.1415   84.0191   15.5372 C.ar    1  UNL1       -0.0026
     51 C          62.5256   84.6960   16.7258 C.ar    1  UNL1       -0.0003
     52 C          63.0371   86.0321   17.1764 C.ar    1  UNL1       -0.0000
     53 C          64.1645   86.6914   16.4386 C.ar    1  UNL1       -0.0003
     54 C          64.7803   86.0146   15.2501 C.ar    1  UNL1       -0.0026
@<TRIPOS>BOND
     1    18    19    2
     2    19    17    1
     3    17     1    1
     4     1     2    1
     5     2     3    1
     6     3     4    2
     7     3     5   am
     8     5     6    1
     9     6    20    1
    10    20    21    1
    11    21    22   ar
    12    22    23   ar
    13    23    24   ar
    14    24    25    1
    15    24    26   ar
    16    26    27   ar
    17     6     7    1
    18     7     8    2
    19     7     9   am
    20     9    29    1
    21    29    30    1
    22    30    31   ar
    23    31    32   ar
    24    32    33   ar
    25    33    34   ar
    26    34    35   ar
    27    35    40    1
    28    40    41    2
    29    40    42   am
    30    42    43    1
    31    43    44    1
    32    44    45    1
    33    45    46    1
    34    46    47    1
    35    35    36   ar
    36    36    37   ar
    37    37    38    1
    38    37    39   ar
    39     9    10    1
    40    11    10    1
    41    11    12    1
    42    12    13   am
    43    13    14    2
    44    13    15   am
    45    15    48    1
    46    48    49    1
    47    49    50   ar
    48    50    51   ar
    49    51    52   ar
    50    52    53   ar
    51    53    54   ar
    52    12     1    1
    53    54    49   ar
    54    11     5    1
    55    27    21   ar
    56    39    30   ar
    57    39    34   ar
    58    47    42    1
    59    25    28    1
    60    15    16    1
@<TRIPOS>MOLECULE
*****
 54 60 0 0 0
SMALL
GASTEIGER

@<TRIPOS>ATOM
      1 N          63.8099   86.0721   15.9645 N.3     1  UNL1       -0.1862
      2 C          63.9499   84.5980   16.2040 C.3     1  UNL1        0.1775
      3 C          63.8183   83.6365   15.0603 C.2     1  UNL1        0.2452
      4 O          63.9584   82.1623   15.2998 O.2     1  UNL1       -0.2732
      5 N          63.5467   84.1491   13.6770 N.am    1  UNL1       -0.2541
      6 C          63.4151   83.1876   12.5333 C.3     1  UNL1        0.1577
      7 C          63.1434   83.7002   11.1500 C.2     1  UNL1        0.2445
      8 O          63.0118   82.7387   10.0063 O.2     1  UNL1       -0.2731
      9 N          63.0033   85.1743   10.9105 N.am    1  UNL1       -0.2705
     10 C          63.1349   86.1358   12.0542 C.3     1  UNL1        0.1359
     11 C          63.4066   85.6232   13.4375 C.3     1  UNL1        0.1908
     12 N          63.5382   86.5847   14.5813 N.am    1  UNL1       -0.1863
     13 C          63.3981   88.0588   14.3418 C.2     1  UNL1        0.3191
     14 O          63.1265   88.5714   12.9585 O.2     1  UNL1       -0.2512
     15 N          63.5297   89.0203   15.4855 N.am    1  UNL1       -0.2836
     16 H          63.7080   88.6839   16.3934 H       1  UNL1        0.1513
     17 C          63.9415   87.0336   17.1083 C.3     1  UNL1        0.1188
     18 C          62.7226   87.0496   19.4027 C.2     1  UNL1       -0.0034
     19 C          62.7416   87.3792   17.9394 C.2     1  UNL1       -0.0071
     20 C          63.5551   81.7135   12.7727 C.3     1  UNL1        0.0556
     21 C          62.3698   80.9103   13.2196 C.ar    1  UNL1       -0.0198
     22 C          62.4109   79.4123   13.1538 C.ar    1  UNL1       -0.0011
     23 C          61.2255   78.6091   13.6007 C.ar    1  UNL1        0.0363
     24 C          59.9990   79.3039   14.1134 C.ar    1  UNL1        0.1337
     25 O          58.8136   78.5006   14.5603 O.3     1  UNL1       -0.5055
     26 C          59.9578   80.8019   14.1792 C.ar    1  UNL1        0.0363
     27 C          61.1432   81.6051   13.7323 C.ar    1  UNL1       -0.0011
     28 H          58.8393   77.5649   14.5192 H       1  UNL1        0.2922
     29 C          62.7317   85.6869    9.5272 C.3     1  UNL1        0.1217
     30 C          62.0695   87.0195    9.3378 C.ar    1  UNL1        0.0135
     31 C          62.4579   88.1801   10.2051 C.ar    1  UNL1       -0.0012
     32 C          61.7958   89.5126   10.0157 C.ar    1  UNL1       -0.0002
     33 C          60.7453   89.6845    8.9589 C.ar    1  UNL1        0.0016
     34 C          60.3568   88.5240    8.0916 C.ar    1  UNL1        0.0214
     35 C          59.3621   88.3929    6.9766 C.ar    1  UNL1        0.0721
     36 C          59.4095   86.9794    6.4769 C.ar    1  UNL1        0.0805
     37 N          60.4334   86.2369    7.2831 N.ar    1  UNL1       -0.3241
     38 C          60.8064   84.7932    7.1200 C.3     1  UNL1        0.1305
     39 C          61.0190   87.1915    8.2810 C.ar    1  UNL1        0.0577
     40 C          58.4756   89.4840    6.4531 C.2     1  UNL1        0.2507
     41 O          57.0196   89.5048    6.8131 O.2     1  UNL1       -0.2699
     42 N          59.0451   90.5541    5.5697 N.am    1  UNL1       -0.2709
     43 C          58.1588   91.6451    5.0462 C.3     1  UNL1        0.1258
     44 C          58.7283   92.7152    4.1628 C.3     1  UNL1        0.1637
     45 O          60.1843   92.6943    3.8027 O.3     1  UNL1       -0.3501
     46 C          61.0707   91.6033    4.3262 C.3     1  UNL1        0.1637
     47 C          60.5012   90.5332    5.2097 C.3     1  UNL1        0.1258
     48 C          63.3897   90.4944   15.2460 C.3     1  UNL1        0.1177
     49 C          64.4592   91.2385   14.5027 C.ar    1  UNL1       -0.0025
     50 C          65.7236   91.6351   15.2055 C.ar    1  UNL1       -0.0026
     51 C          66.7931   92.3791   14.4621 C.ar    1  UNL1       -0.0003
     52 C          66.5982   92.7266   13.0160 C.ar    1  UNL1       -0.0000
     53 C          65.3337   92.3300   12.3132 C.ar    1  UNL1       -0.0003
     54 C          64.2642   91.5859   13.0565 C.ar    1  UNL1       -0.0026
@<TRIPOS>BOND
     1    18    19    2
     2    19    17    1
     3    17     1    1
     4     1     2    1
     5     2     3    1
     6     3     4    2
     7     3     5   am
     8     5     6    1
     9     6    20    1
    10    20    21    1
    11    21    22   ar
    12    22    23   ar
    13    23    24   ar
    14    24    25    1
    15    24    26   ar
    16    26    27   ar
    17     6     7    1
    18     7     8    2
    19     7     9   am
    20     9    29    1
    21    29    30    1
    22    30    31   ar
    23    31    32   ar
    24    32    33   ar
    25    33    34   ar
    26    34    35   ar
    27    35    40    1
    28    40    41    2
    29    40    42   am
    30    42    43    1
    31    43    44    1
    32    44    45    1
    33    45    46    1
    34    46    47    1
    35    35    36   ar
    36    36    37   ar
    37    37    38    1
    38    37    39   ar
    39     9    10    1
    40    11    10    1
    41    11    12    1
    42    12    13   am
    43    13    14    2
    44    13    15   am
    45    15    48    1
    46    48    49    1
    47    49    50   ar
    48    50    51   ar
    49    51    52   ar
    50    52    53   ar
    51    53    54   ar
    52    12     1    1
    53    54    49   ar
    54    11     5    1
    55    27    21   ar
    56    39    30   ar
    57    39    34   ar
    58    47    42    1
    59    25    28    1
    60    15    16    1
@<TRIPOS>MOLECULE
*****
 54 60 0 0 0
SMALL
GASTEIGER

@<TRIPOS>ATOM
      1 N          65.3576   89.3498   14.6627 N.3     1  UNL1       -0.1862
      2 C          65.5469   88.1033   15.4754 C.3     1  UNL1        0.1775
      3 C          64.8208   86.8456   15.0997 C.2     1  UNL1        0.2452
      4 O          65.0101   85.5991   15.9124 O.2     1  UNL1       -0.2732
      5 N          63.9055   86.8344   13.9114 N.am    1  UNL1       -0.2541
      6 C          63.1795   85.5768   13.5358 C.3     1  UNL1        0.1577
      7 C          62.2642   85.5656   12.3475 C.2     1  UNL1        0.2445
      8 O          61.5382   84.3079   11.9718 O.2     1  UNL1       -0.2731
      9 N          62.0749   86.8121   11.5348 N.am    1  UNL1       -0.2705
     10 C          62.8009   88.0698   11.9104 C.3     1  UNL1        0.1359
     11 C          63.7163   88.0809   13.0988 C.3     1  UNL1        0.1908
     12 N          64.4423   89.3386   13.4745 N.am    1  UNL1       -0.1863
     13 C          64.2530   90.5851   12.6618 C.2     1  UNL1        0.3191
     14 O          63.3377   90.5739   11.4735 O.2     1  UNL1       -0.2512
     15 N          64.9791   91.8428   13.0374 N.am    1  UNL1       -0.2836
     16 H          65.5798   91.8501   13.8173 H       1  UNL1        0.1513
     17 C          66.0836   90.6075   15.0384 C.3     1  UNL1        0.1188
     18 C          68.0845   92.2216   14.6631 C.2     1  UNL1       -0.0034
     19 C          67.4606   90.8670   14.5031 C.2     1  UNL1       -0.0071
     20 C          63.3687   84.3303   14.3484 C.3     1  UNL1        0.0556
     21 C          63.1671   82.9850   13.7162 C.ar    1  UNL1       -0.0198
     22 C          63.9974   82.5796   12.5346 C.ar    1  UNL1       -0.0011
     23 C          63.7957   81.2343   11.9025 C.ar    1  UNL1        0.0363
     24 C          62.7639   80.2945   12.4519 C.ar    1  UNL1        0.1337
     25 O          62.5623   78.9492   11.8198 O.3     1  UNL1       -0.5055
     26 C          61.9336   80.6999   13.6337 C.ar    1  UNL1        0.0363
     27 C          62.1352   82.0451   14.2658 C.ar    1  UNL1       -0.0011
     28 H          63.0809   78.6960   11.0817 H       1  UNL1        0.2922
     29 C          61.1596   86.8009   10.3465 C.3     1  UNL1        0.1217
     30 C          60.5582   88.0826    9.8509 C.ar    1  UNL1        0.0135
     31 C          60.3683   89.2352   10.7920 C.ar    1  UNL1       -0.0012
     32 C          59.7670   90.5168   10.2965 C.ar    1  UNL1       -0.0002
     33 C          59.3555   90.6460    8.8598 C.ar    1  UNL1        0.0016
     34 C          59.5454   89.4935    7.9187 C.ar    1  UNL1        0.0214
     35 C          59.2379   89.3277    6.4600 C.ar    1  UNL1        0.0721
     36 C          59.6492   87.9435    6.0540 C.ar    1  UNL1        0.0805
     37 N          60.2109   87.2539    7.2618 N.ar    1  UNL1       -0.3241
     38 C          60.7433   85.8524    7.3089 C.3     1  UNL1        0.1305
     39 C          60.1467   88.2118    8.4143 C.ar    1  UNL1        0.0577
     40 C          58.6263   90.3641    5.5644 C.2     1  UNL1        0.2507
     41 O          57.1443   90.5946    5.5869 O.2     1  UNL1       -0.2699
     42 N          59.4969   91.1701    4.6465 N.am    1  UNL1       -0.2709
     43 C          58.8855   92.2065    3.7510 C.3     1  UNL1        0.1258
     44 C          59.7560   93.0124    2.8330 C.3     1  UNL1        0.1637
     45 O          61.2380   92.7819    2.8106 O.3     1  UNL1       -0.3501
     46 C          61.8495   91.7455    3.7062 C.3     1  UNL1        0.1637
     47 C          60.9789   90.9395    4.6241 C.3     1  UNL1        0.1258
     48 C          64.7898   93.0893   12.2248 C.3     1  UNL1        0.1177
     49 C          65.8337   93.5015   11.2296 C.ar    1  UNL1       -0.0025
     50 C          65.9311   94.9337   10.7946 C.ar    1  UNL1       -0.0026
     51 C          66.9750   95.3460    9.7994 C.ar    1  UNL1       -0.0003
     52 C          67.9215   94.3260    9.2393 C.ar    1  UNL1       -0.0000
     53 C          67.8241   92.8938    9.6744 C.ar    1  UNL1       -0.0003
     54 C          66.7803   92.4815   10.6695 C.ar    1  UNL1       -0.0026
@<TRIPOS>BOND
     1    18    19    2
     2    19    17    1
     3    17     1    1
     4     1     2    1
     5     2     3    1
     6     3     4    2
     7     3     5   am
     8     5     6    1
     9     6    20    1
    10    20    21    1
    11    21    22   ar
    12    22    23   ar
    13    23    24   ar
    14    24    25    1
    15    24    26   ar
    16    26    27   ar
    17     6     7    1
    18     7     8    2
    19     7     9   am
    20     9    29    1
    21    29    30    1
    22    30    31   ar
    23    31    32   ar
    24    32    33   ar
    25    33    34   ar
    26    34    35   ar
    27    35    40    1
    28    40    41    2
    29    40    42   am
    30    42    43    1
    31    43    44    1
    32    44    45    1
    33    45    46    1
    34    46    47    1
    35    35    36   ar
    36    36    37   ar
    37    37    38    1
    38    37    39   ar
    39     9    10    1
    40    11    10    1
    41    11    12    1
    42    12    13   am
    43    13    14    2
    44    13    15   am
    45    15    48    1
    46    48    49    1
    47    49    50   ar
    48    50    51   ar
    49    51    52   ar
    50    52    53   ar
    51    53    54   ar
    52    12     1    1
    53    54    49   ar
    54    11     5    1
    55    27    21   ar
    56    39    30   ar
    57    39    34   ar
    58    47    42    1
    59    25    28    1
    60    15    16    1
