@<TRIPOS>MOLECULE
*****
 29 33 0 0 0
SMALL
GASTEIGER

@<TRIPOS>ATOM
      1 C          62.0328   86.6603   10.9053 C.ar    1  UNL1        0.1318
      2 C          62.5148   88.0126   11.3400 C.ar    1  UNL1        0.0358
      3 C          63.3242   88.1525   12.5951 C.ar    1  UNL1        0.0217
      4 C          63.6517   86.9401   13.4155 C.ar    1  UNL1        0.0223
      5 C          64.4611   87.0800   14.6705 C.ar    1  UNL1        0.0222
      6 C          64.7886   85.8677   15.4908 C.ar    1  UNL1        0.0990
      7 N          64.3066   84.5154   15.0560 N.ar    1  UNL1       -0.2408
      8 C          63.4972   84.3755   13.8010 C.ar    1  UNL1        0.1159
      9 C          63.1697   85.5878   12.9807 C.ar    1  UNL1        0.1018
     10 N          62.3603   85.4479   11.7256 N.ar    1  UNL1       -0.2291
     11 C          63.1366   85.1329    8.5709 C.3     1  UNL1        0.0241
     12 C          61.7752   85.7567    8.4830 C.3     1  UNL1        0.1038
     13 C          60.9658   85.6168    7.2279 C.3     1  UNL1        0.1618
     14 O          59.6045   86.2406    7.1400 O.3     1  UNL1       -0.3502
     15 C          59.0526   87.0043    8.3072 C.3     1  UNL1        0.1636
     16 C          59.8621   87.1442    9.5622 C.3     1  UNL1        0.1242
     17 N          61.2234   86.5204    9.6501 N.pl3   1  UNL1       -0.2898
     18 C          63.8062   89.5048   13.0298 C.ar    1  UNL1        0.0796
     19 C          64.4469   89.8312   14.3462 C.ar    1  UNL1        0.0412
     20 C          64.7688   91.2963   14.3545 C.ar    1  UNL1        0.1217
     21 N          64.3270   91.8753   13.0432 N.ar    1  UNL1       -0.1676
     22 N          63.7321   90.7681   12.2245 N.ar    1  UNL1       -0.2488
     23 C          63.1630   90.9010   10.8431 C.3     1  UNL1        0.1537
     24 C          63.0152   83.0232   13.3662 C.ar    1  UNL1        0.0945
     25 C          62.1930   82.0743   14.1870 C.ar    1  UNL1        0.0425
     26 C          61.9405   80.8470   13.3624 C.ar    1  UNL1        0.1215
     27 N          62.6066   81.0373   12.0320 N.ar    1  UNL1       -0.1710
     28 N          63.2708   82.3823   12.0343 N.ar    1  UNL1       -0.2742
     29 H          63.7844   82.7753   11.2921 H       1  UNL1        0.1890
@<TRIPOS>BOND
     1    12    11    1
     2    12    13    1
     3    13    14    1
     4    14    15    1
     5    15    16    1
     6    16    17    1
     7    17     1    1
     8     1     2   ar
     9     2     3   ar
    10     3    18    1
    11    18    19   ar
    12    19    20   ar
    13    20    21   ar
    14    21    22   ar
    15    22    23    1
    16     3     4   ar
    17     4     5   ar
    18     5     6   ar
    19     6     7   ar
    20     7     8   ar
    21     8    24    1
    22    24    25   ar
    23    25    26   ar
    24    26    27   ar
    25    27    28   ar
    26     8     9   ar
    27     9    10   ar
    28    17    12    1
    29    10     1   ar
    30    22    18   ar
    31     9     4   ar
    32    28    24   ar
    33    28    29    1
@<TRIPOS>MOLECULE
*****
 29 33 0 0 0
SMALL
GASTEIGER

@<TRIPOS>ATOM
      1 C          62.9330   85.7338   12.3836 C.ar    1  UNL1        0.1318
      2 C          62.4577   85.3064   11.0266 C.ar    1  UNL1        0.0358
      3 C          62.0960   86.3379    9.9994 C.ar    1  UNL1        0.0217
      4 C          62.2097   87.7968   10.3291 C.ar    1  UNL1        0.0223
      5 C          61.8481   88.8283    9.3019 C.ar    1  UNL1        0.0222
      6 C          61.9618   90.2871    9.6316 C.ar    1  UNL1        0.0990
      7 N          62.4371   90.7145   10.9886 N.ar    1  UNL1       -0.2408
      8 C          62.7988   89.6831   12.0158 C.ar    1  UNL1        0.1159
      9 C          62.6851   88.2242   11.6861 C.ar    1  UNL1        0.1018
     10 N          63.0467   87.1927   12.7133 N.ar    1  UNL1       -0.2291
     11 C          64.5338   86.5170   14.7969 C.3     1  UNL1        0.0241
     12 C          64.0951   85.0939   14.6175 C.3     1  UNL1        0.1038
     13 C          64.4567   84.0623   15.6447 C.3     1  UNL1        0.1618
     14 O          64.0179   82.6392   15.4652 O.3     1  UNL1       -0.3502
     15 C          63.2175   82.2476   14.2586 C.3     1  UNL1        0.1636
     16 C          62.8559   83.2791   13.2314 C.3     1  UNL1        0.1242
     17 N          63.2947   84.7023   13.4109 N.pl3   1  UNL1       -0.2898
     18 C          61.6206   85.9105    8.6424 C.ar    1  UNL1        0.0796
     19 C          62.4211   85.1505    7.6268 C.ar    1  UNL1        0.0412
     20 C          61.5566   84.9383    6.4195 C.ar    1  UNL1        0.1217
     21 N          60.2217   85.5672    6.6890 N.ar    1  UNL1       -0.1676
     22 N          60.2613   86.1680    8.0629 N.ar    1  UNL1       -0.2488
     23 C          59.1387   86.8983    8.7385 C.3     1  UNL1        0.1537
     24 C          63.2742   90.1105   13.3728 C.ar    1  UNL1        0.0945
     25 C          64.5472   90.8460   13.6698 C.ar    1  UNL1        0.0425
     26 C          64.6198   91.0675   15.1516 C.ar    1  UNL1        0.1215
     27 N          63.3915   90.4688   15.7704 N.ar    1  UNL1       -0.1710
     28 N          62.5599   89.8774   14.6710 N.ar    1  UNL1       -0.2742
     29 H          61.6968   89.4170   14.7821 H       1  UNL1        0.1890
@<TRIPOS>BOND
     1    12    11    1
     2    12    13    1
     3    13    14    1
     4    14    15    1
     5    15    16    1
     6    16    17    1
     7    17     1    1
     8     1     2   ar
     9     2     3   ar
    10     3    18    1
    11    18    19   ar
    12    19    20   ar
    13    20    21   ar
    14    21    22   ar
    15    22    23    1
    16     3     4   ar
    17     4     5   ar
    18     5     6   ar
    19     6     7   ar
    20     7     8   ar
    21     8    24    1
    22    24    25   ar
    23    25    26   ar
    24    26    27   ar
    25    27    28   ar
    26     8     9   ar
    27     9    10   ar
    28    17    12    1
    29    10     1   ar
    30    22    18   ar
    31     9     4   ar
    32    28    24   ar
    33    28    29    1
@<TRIPOS>MOLECULE
*****
 29 33 0 0 0
SMALL
GASTEIGER

@<TRIPOS>ATOM
      1 C          64.2824   88.8999   14.3896 C.ar    1  UNL1        0.1318
      2 C          65.3573   89.8173   14.8925 C.ar    1  UNL1        0.0358
      3 C          65.7304   91.0382   14.1049 C.ar    1  UNL1        0.0217
      4 C          65.0285   91.3416   12.8143 C.ar    1  UNL1        0.0223
      5 C          65.4015   92.5624   12.0267 C.ar    1  UNL1        0.0222
      6 C          64.6997   92.8658   10.7363 C.ar    1  UNL1        0.0990
      7 N          63.6248   91.9483   10.2334 N.ar    1  UNL1       -0.2408
      8 C          63.2517   90.7275   11.0210 C.ar    1  UNL1        0.1159
      9 C          63.9536   90.4241   12.3115 C.ar    1  UNL1        0.1018
     10 N          63.5805   89.2033   13.0992 N.ar    1  UNL1       -0.2291
     11 C          62.9393   89.1879   17.0567 C.3     1  UNL1        0.0241
     12 C          63.2378   87.8230   16.5108 C.3     1  UNL1        0.1038
     13 C          62.8648   86.6022   17.2984 C.3     1  UNL1        0.1618
     14 O          63.1634   85.2373   16.7525 O.3     1  UNL1       -0.3502
     15 C          63.8349   85.0933   15.4190 C.3     1  UNL1        0.1636
     16 C          64.2079   86.3141   14.6314 C.3     1  UNL1        0.1242
     17 N          63.9094   87.6790   15.1773 N.pl3   1  UNL1       -0.2898
     18 C          66.8053   91.9556   14.6077 C.ar    1  UNL1        0.0796
     19 C          66.7277   92.8158   15.8341 C.ar    1  UNL1        0.0412
     20 C          68.0210   93.5658   15.9568 C.ar    1  UNL1        0.1217
     21 N          68.8978   93.1691   14.8063 N.ar    1  UNL1       -0.1676
     22 N          68.1464   92.1740   13.9725 N.ar    1  UNL1       -0.2488
     23 C          68.6482   91.5132   12.7228 C.3     1  UNL1        0.1537
     24 C          62.1768   89.8101   10.5182 C.ar    1  UNL1        0.0945
     25 C          60.7351   90.1699   10.3132 C.ar    1  UNL1        0.0425
     26 C          60.0222   88.9540    9.8004 C.ar    1  UNL1        0.1215
     27 N          61.0232   87.8425    9.6883 N.ar    1  UNL1       -0.1710
     28 N          62.3549   88.3716   10.1320 N.ar    1  UNL1       -0.2742
     29 H          63.1977   87.8639   10.1640 H       1  UNL1        0.1890
@<TRIPOS>BOND
     1    12    11    1
     2    12    13    1
     3    13    14    1
     4    14    15    1
     5    15    16    1
     6    16    17    1
     7    17     1    1
     8     1     2   ar
     9     2     3   ar
    10     3    18    1
    11    18    19   ar
    12    19    20   ar
    13    20    21   ar
    14    21    22   ar
    15    22    23    1
    16     3     4   ar
    17     4     5   ar
    18     5     6   ar
    19     6     7   ar
    20     7     8   ar
    21     8    24    1
    22    24    25   ar
    23    25    26   ar
    24    26    27   ar
    25    27    28   ar
    26     8     9   ar
    27     9    10   ar
    28    17    12    1
    29    10     1   ar
    30    22    18   ar
    31     9     4   ar
    32    28    24   ar
    33    28    29    1
@<TRIPOS>MOLECULE
*****
 29 33 0 0 0
SMALL
GASTEIGER

@<TRIPOS>ATOM
      1 C          63.5617   86.6950   13.3099 C.ar    1  UNL1        0.1318
      2 C          64.1359   87.8115   14.1307 C.ar    1  UNL1        0.0358
      3 C          64.0196   89.2291   13.6543 C.ar    1  UNL1        0.0217
      4 C          63.3291   89.5302   12.3571 C.ar    1  UNL1        0.0223
      5 C          63.2128   90.9478   11.8808 C.ar    1  UNL1        0.0222
      6 C          62.5223   91.2488   10.5837 C.ar    1  UNL1        0.0990
      7 N          61.9481   90.1323    9.7629 N.ar    1  UNL1       -0.2408
      8 C          62.0644   88.7147   10.2393 C.ar    1  UNL1        0.1159
      9 C          62.7549   88.4137   11.5364 C.ar    1  UNL1        0.1018
     10 N          62.8712   86.9961   12.0128 N.ar    1  UNL1       -0.2291
     11 C          63.4382   86.0838   16.2444 C.3     1  UNL1        0.0241
     12 C          63.6163   84.9718   15.2535 C.3     1  UNL1        0.1038
     13 C          63.7327   83.5542   15.7298 C.3     1  UNL1        0.1618
     14 O          63.9107   82.4423   14.7390 O.3     1  UNL1       -0.3502
     15 C          63.9725   82.7479   13.2718 C.3     1  UNL1        0.1636
     16 C          63.8561   84.1654   12.7954 C.3     1  UNL1        0.1242
     17 N          63.6781   85.2774   13.7863 N.pl3   1  UNL1       -0.2898
     18 C          64.5938   90.3456   14.4751 C.ar    1  UNL1        0.0796
     19 C          65.7460   91.2237   14.0859 C.ar    1  UNL1        0.0412
     20 C          65.9810   92.2009   15.1994 C.ar    1  UNL1        0.1217
     21 N          64.9740   91.9268   16.2768 N.ar    1  UNL1       -0.1676
     22 N          64.1167   90.7802   15.8291 N.ar    1  UNL1       -0.2488
     23 C          62.9815   90.1745   16.6002 C.3     1  UNL1        0.1537
     24 C          61.4902   87.5982    9.4185 C.ar    1  UNL1        0.0945
     25 C          60.0863   87.5198    8.8960 C.ar    1  UNL1        0.0425
     26 C          59.9475   86.2372    8.1307 C.ar    1  UNL1        0.1215
     27 N          61.2656   85.5229    8.1802 N.ar    1  UNL1       -0.1710
     28 N          62.2190   86.3640    8.9762 N.ar    1  UNL1       -0.2742
     29 H          63.1582   86.1446    9.1736 H       1  UNL1        0.1890
@<TRIPOS>BOND
     1    12    11    1
     2    12    13    1
     3    13    14    1
     4    14    15    1
     5    15    16    1
     6    16    17    1
     7    17     1    1
     8     1     2   ar
     9     2     3   ar
    10     3    18    1
    11    18    19   ar
    12    19    20   ar
    13    20    21   ar
    14    21    22   ar
    15    22    23    1
    16     3     4   ar
    17     4     5   ar
    18     5     6   ar
    19     6     7   ar
    20     7     8   ar
    21     8    24    1
    22    24    25   ar
    23    25    26   ar
    24    26    27   ar
    25    27    28   ar
    26     8     9   ar
    27     9    10   ar
    28    17    12    1
    29    10     1   ar
    30    22    18   ar
    31     9     4   ar
    32    28    24   ar
    33    28    29    1
@<TRIPOS>MOLECULE
*****
 29 33 0 0 0
SMALL
GASTEIGER

@<TRIPOS>ATOM
      1 C          62.9426   86.1863   12.4995 C.ar    1  UNL1        0.1318
      2 C          62.2030   85.8090   11.2502 C.ar    1  UNL1        0.0358
      3 C          61.7591   86.8733   10.2910 C.ar    1  UNL1        0.0217
      4 C          62.0548   88.3151   10.5811 C.ar    1  UNL1        0.0223
      5 C          61.6109   89.3794    9.6219 C.ar    1  UNL1        0.0222
      6 C          61.9066   90.8211    9.9120 C.ar    1  UNL1        0.0990
      7 N          62.6462   91.1983   11.1613 N.ar    1  UNL1       -0.2408
      8 C          63.0901   90.1340   12.1205 C.ar    1  UNL1        0.1159
      9 C          62.7944   88.6924   11.8304 C.ar    1  UNL1        0.1018
     10 N          63.2383   87.6279   12.7896 N.ar    1  UNL1       -0.2291
     11 C          63.9049   83.5403   11.4637 C.3     1  UNL1        0.0241
     12 C          63.8676   83.7989   12.9408 C.3     1  UNL1        0.1038
     13 C          64.3114   82.7345   13.9000 C.3     1  UNL1        0.1618
     14 O          64.2742   82.9931   15.3770 O.3     1  UNL1       -0.3502
     15 C          63.7931   84.3160   15.8949 C.3     1  UNL1        0.1636
     16 C          63.3492   85.3804   14.9357 C.3     1  UNL1        0.1242
     17 N          63.3865   85.1218   13.4587 N.pl3   1  UNL1       -0.2898
     18 C          61.0195   86.4961    9.0418 C.ar    1  UNL1        0.0796
     19 C          59.6178   86.8991    8.6912 C.ar    1  UNL1        0.0412
     20 C          59.2837   86.3016    7.3565 C.ar    1  UNL1        0.1217
     21 N          60.4790   85.5294    6.8821 N.ar    1  UNL1       -0.1676
     22 N          61.5517   85.6495    7.9237 N.ar    1  UNL1       -0.2488
     23 C          62.9170   85.0317    7.8585 C.3     1  UNL1        0.1537
     24 C          63.8297   90.5113   13.3697 C.ar    1  UNL1        0.0945
     25 C          65.2463   90.9988   13.4424 C.ar    1  UNL1        0.0425
     26 C          65.5747   91.2561   14.8833 C.ar    1  UNL1        0.1215
     27 N          64.3609   90.9276   15.7011 N.ar    1  UNL1       -0.1710
     28 N          63.2825   90.4672   14.7656 N.ar    1  UNL1       -0.2742
     29 H          62.3748   90.1856   15.0228 H       1  UNL1        0.1890
@<TRIPOS>BOND
     1    12    11    1
     2    12    13    1
     3    13    14    1
     4    14    15    1
     5    15    16    1
     6    16    17    1
     7    17     1    1
     8     1     2   ar
     9     2     3   ar
    10     3    18    1
    11    18    19   ar
    12    19    20   ar
    13    20    21   ar
    14    21    22   ar
    15    22    23    1
    16     3     4   ar
    17     4     5   ar
    18     5     6   ar
    19     6     7   ar
    20     7     8   ar
    21     8    24    1
    22    24    25   ar
    23    25    26   ar
    24    26    27   ar
    25    27    28   ar
    26     8     9   ar
    27     9    10   ar
    28    17    12    1
    29    10     1   ar
    30    22    18   ar
    31     9     4   ar
    32    28    24   ar
    33    28    29    1
@<TRIPOS>MOLECULE
*****
 29 33 0 0 0
SMALL
GASTEIGER

@<TRIPOS>ATOM
      1 C          65.2330   92.6530   11.0251 C.ar    1  UNL1        0.1318
      2 C          64.1342   91.8446   10.4014 C.ar    1  UNL1        0.0358
      3 C          63.4288   90.7922   11.2045 C.ar    1  UNL1        0.0217
      4 C          63.8223   90.5482   12.6313 C.ar    1  UNL1        0.0223
      5 C          63.1170   89.4958   13.4343 C.ar    1  UNL1        0.0222
      6 C          63.5105   89.2518   14.8610 C.ar    1  UNL1        0.0990
      7 N          64.6093   90.0602   15.4847 N.ar    1  UNL1       -0.2408
      8 C          65.3147   91.1126   14.6817 C.ar    1  UNL1        0.1159
      9 C          64.9212   91.3566   13.2550 C.ar    1  UNL1        0.1018
     10 N          65.6265   92.4090   12.4518 N.ar    1  UNL1       -0.2291
     11 C          67.8575   92.0301    9.7120 C.3     1  UNL1        0.0241
     12 C          67.2506   93.3940    9.5655 C.3     1  UNL1        0.1038
     13 C          67.9559   94.4464    8.7624 C.3     1  UNL1        0.1618
     14 O          67.3490   95.8103    8.6159 O.3     1  UNL1       -0.3502
     15 C          66.0368   96.1217    9.2724 C.3     1  UNL1        0.1636
     16 C          65.3315   95.0693   10.0755 C.3     1  UNL1        0.1242
     17 N          65.9384   93.7054   10.2220 N.pl3   1  UNL1       -0.2898
     18 C          62.3300   89.9838   10.5808 C.ar    1  UNL1        0.0796
     19 C          62.5099   88.7869    9.6948 C.ar    1  UNL1        0.0412
     20 C          61.1494   88.2937    9.3000 C.ar    1  UNL1        0.1217
     21 N          60.1286   89.1858    9.9420 N.ar    1  UNL1       -0.1676
     22 N          60.8583   90.2303   10.7336 N.ar    1  UNL1       -0.2488
     23 C          60.2271   91.3286   11.5369 C.3     1  UNL1        0.1537
     24 C          66.4135   91.9211   15.3054 C.ar    1  UNL1        0.0945
     25 C          67.8855   91.6924   15.1290 C.ar    1  UNL1        0.0425
     26 C          68.6151   92.7301   15.9295 C.ar    1  UNL1        0.1215
     27 N          67.5940   93.6001   16.6007 N.ar    1  UNL1       -0.1710
     28 N          66.2334   93.1001   16.2150 N.ar    1  UNL1       -0.2742
     29 H          65.3732   93.4792   16.5075 H       1  UNL1        0.1890
@<TRIPOS>BOND
     1    12    11    1
     2    12    13    1
     3    13    14    1
     4    14    15    1
     5    15    16    1
     6    16    17    1
     7    17     1    1
     8     1     2   ar
     9     2     3   ar
    10     3    18    1
    11    18    19   ar
    12    19    20   ar
    13    20    21   ar
    14    21    22   ar
    15    22    23    1
    16     3     4   ar
    17     4     5   ar
    18     5     6   ar
    19     6     7   ar
    20     7     8   ar
    21     8    24    1
    22    24    25   ar
    23    25    26   ar
    24    26    27   ar
    25    27    28   ar
    26     8     9   ar
    27     9    10   ar
    28    17    12    1
    29    10     1   ar
    30    22    18   ar
    31     9     4   ar
    32    28    24   ar
    33    28    29    1
@<TRIPOS>MOLECULE
*****
 29 33 0 0 0
SMALL
GASTEIGER

@<TRIPOS>ATOM
      1 C          61.8359   86.6853   11.0209 C.ar    1  UNL1        0.1318
      2 C          61.8977   85.1876   11.0765 C.ar    1  UNL1        0.0358
      3 C          62.6905   84.5092   12.1540 C.ar    1  UNL1        0.0217
      4 C          63.4216   85.3284   13.1759 C.ar    1  UNL1        0.0223
      5 C          64.2145   84.6500   14.2534 C.ar    1  UNL1        0.0222
      6 C          64.9455   85.4693   15.2753 C.ar    1  UNL1        0.0990
      7 N          64.8837   86.9670   15.2197 N.ar    1  UNL1       -0.2408
      8 C          64.0909   87.6454   14.1422 C.ar    1  UNL1        0.1159
      9 C          63.3598   86.8261   13.1203 C.ar    1  UNL1        0.1018
     10 N          62.5669   87.5046   12.0428 N.ar    1  UNL1       -0.2291
     11 C          62.1412   89.6347   10.5649 C.3     1  UNL1        0.0241
     12 C          61.1956   88.8384    9.7154 C.3     1  UNL1        0.1038
     13 C          60.4027   89.5168    8.6378 C.3     1  UNL1        0.1618
     14 O          59.4571   88.7205    7.7882 O.3     1  UNL1       -0.3502
     15 C          59.3045   87.2458    8.0162 C.3     1  UNL1        0.1636
     16 C          60.0974   86.5674    9.0937 C.3     1  UNL1        0.1242
     17 N          61.0429   87.3638    9.9433 N.pl3   1  UNL1       -0.2898
     18 C          62.7523   83.0115   12.2095 C.ar    1  UNL1        0.0796
     19 C          62.0992   82.1398   13.2408 C.ar    1  UNL1        0.0412
     20 C          62.4213   80.7121   12.9123 C.ar    1  UNL1        0.1217
     21 N          63.2735   80.7014   11.6779 N.ar    1  UNL1       -0.1676
     22 N          63.4781   82.1225   11.2436 N.ar    1  UNL1       -0.2488
     23 C          64.2695   82.5752   10.0525 C.3     1  UNL1        0.1537
     24 C          64.0291   89.1431   14.0867 C.ar    1  UNL1        0.0945
     25 C          65.2013   90.0768   14.1492 C.ar    1  UNL1        0.0425
     26 C          64.6809   91.4808   14.0600 C.ar    1  UNL1        0.1215
     27 N          63.1870   91.4148   13.9423 N.ar    1  UNL1       -0.1710
     28 N          62.7842   89.9700   13.9588 N.ar    1  UNL1       -0.2742
     29 H          61.8642   89.6251   13.8966 H       1  UNL1        0.1890
@<TRIPOS>BOND
     1    12    11    1
     2    12    13    1
     3    13    14    1
     4    14    15    1
     5    15    16    1
     6    16    17    1
     7    17     1    1
     8     1     2   ar
     9     2     3   ar
    10     3    18    1
    11    18    19   ar
    12    19    20   ar
    13    20    21   ar
    14    21    22   ar
    15    22    23    1
    16     3     4   ar
    17     4     5   ar
    18     5     6   ar
    19     6     7   ar
    20     7     8   ar
    21     8    24    1
    22    24    25   ar
    23    25    26   ar
    24    26    27   ar
    25    27    28   ar
    26     8     9   ar
    27     9    10   ar
    28    17    12    1
    29    10     1   ar
    30    22    18   ar
    31     9     4   ar
    32    28    24   ar
    33    28    29    1
@<TRIPOS>MOLECULE
*****
 29 33 0 0 0
SMALL
GASTEIGER

@<TRIPOS>ATOM
      1 C          62.1345   87.3965   11.1291 C.ar    1  UNL1        0.1318
      2 C          62.6368   88.6779   11.7254 C.ar    1  UNL1        0.0358
      3 C          63.4928   88.6473   12.9567 C.ar    1  UNL1        0.0217
      4 C          63.8466   87.3352   13.5918 C.ar    1  UNL1        0.0223
      5 C          64.7027   87.3047   14.8231 C.ar    1  UNL1        0.0222
      6 C          65.0565   85.9926   15.4581 C.ar    1  UNL1        0.0990
      7 N          64.5542   84.7111   14.8618 N.ar    1  UNL1       -0.2408
      8 C          63.6982   84.7417   13.6305 C.ar    1  UNL1        0.1159
      9 C          63.3444   86.0538   12.9955 C.ar    1  UNL1        0.1018
     10 N          62.4883   86.0844   11.7641 N.ar    1  UNL1       -0.2291
     11 C          60.7254   89.9260   10.3443 C.3     1  UNL1        0.0241
     12 C          60.5739   88.6918    9.5053 C.3     1  UNL1        0.1038
     13 C          59.7179   88.7224    8.2740 C.3     1  UNL1        0.1618
     14 O          59.5664   87.4883    7.4350 O.3     1  UNL1       -0.3502
     15 C          60.2710   86.2235    7.8273 C.3     1  UNL1        0.1636
     16 C          61.1270   86.1929    9.0587 C.3     1  UNL1        0.1242
     17 N          61.2785   87.4271    9.8977 N.pl3   1  UNL1       -0.2898
     18 C          63.9950   89.9288   13.5530 C.ar    1  UNL1        0.0796
     19 C          64.8462   90.9503   12.8588 C.ar    1  UNL1        0.0412
     20 C          65.1115   92.0666   13.8250 C.ar    1  UNL1        0.1217
     21 N          64.4243   91.7350   15.1164 N.ar    1  UNL1       -0.1676
     22 N          63.7343   90.4138   14.9483 N.ar    1  UNL1       -0.2488
     23 C          62.9255   89.7024   15.9922 C.3     1  UNL1        0.1537
     24 C          63.1960   83.4602   13.0342 C.ar    1  UNL1        0.0945
     25 C          62.4220   82.3963   13.7546 C.ar    1  UNL1        0.0425
     26 C          62.1272   81.2962   12.7784 C.ar    1  UNL1        0.1215
     27 N          62.7190   81.6803   11.4546 N.ar    1  UNL1       -0.1710
     28 N          63.3795   83.0177   11.6127 N.ar    1  UNL1       -0.2742
     29 H          63.8507   83.5174   10.9074 H       1  UNL1        0.1890
@<TRIPOS>BOND
     1    12    11    1
     2    12    13    1
     3    13    14    1
     4    14    15    1
     5    15    16    1
     6    16    17    1
     7    17     1    1
     8     1     2   ar
     9     2     3   ar
    10     3    18    1
    11    18    19   ar
    12    19    20   ar
    13    20    21   ar
    14    21    22   ar
    15    22    23    1
    16     3     4   ar
    17     4     5   ar
    18     5     6   ar
    19     6     7   ar
    20     7     8   ar
    21     8    24    1
    22    24    25   ar
    23    25    26   ar
    24    26    27   ar
    25    27    28   ar
    26     8     9   ar
    27     9    10   ar
    28    17    12    1
    29    10     1   ar
    30    22    18   ar
    31     9     4   ar
    32    28    24   ar
    33    28    29    1
@<TRIPOS>MOLECULE
*****
 29 33 0 0 0
SMALL
GASTEIGER

@<TRIPOS>ATOM
      1 C          63.3215   86.1884   12.7781 C.ar    1  UNL1        0.1318
      2 C          63.8579   87.2541   13.6874 C.ar    1  UNL1        0.0358
      3 C          63.6436   88.7010   13.3553 C.ar    1  UNL1        0.0217
      4 C          62.8929   89.0824   12.1139 C.ar    1  UNL1        0.0223
      5 C          62.6785   90.5294   11.7818 C.ar    1  UNL1        0.0222
      6 C          61.9278   90.9107   10.5404 C.ar    1  UNL1        0.0990
      7 N          61.3915   89.8450    9.6311 N.ar    1  UNL1       -0.2408
      8 C          61.6058   88.3981    9.9633 C.ar    1  UNL1        0.1159
      9 C          62.3565   88.0168   11.2046 C.ar    1  UNL1        0.1018
     10 N          62.5709   86.5698   11.5368 N.ar    1  UNL1       -0.2291
     11 C          62.7184   85.1775   15.5376 C.3     1  UNL1        0.0241
     12 C          63.2343   84.2360   14.4900 C.3     1  UNL1        0.1038
     13 C          63.4487   82.7890   14.8221 C.3     1  UNL1        0.1618
     14 O          63.9646   81.8475   13.7745 O.3     1  UNL1       -0.3502
     15 C          64.2662   82.3530   12.3949 C.3     1  UNL1        0.1636
     16 C          64.0518   83.7999   12.0628 C.3     1  UNL1        0.1242
     17 N          63.5359   84.7414   13.1103 N.pl3   1  UNL1       -0.2898
     18 C          64.1799   89.7667   14.2645 C.ar    1  UNL1        0.0796
     19 C          65.2379   90.7717   13.9171 C.ar    1  UNL1        0.0412
     20 C          65.4643   91.6406   15.1187 C.ar    1  UNL1        0.1217
     21 N          64.5463   91.1725   16.2088 N.ar    1  UNL1       -0.1676
     22 N          63.7526   90.0144   15.6808 N.ar    1  UNL1       -0.2488
     23 C          62.7137   89.2400   16.4366 C.3     1  UNL1        0.1537
     24 C          61.0694   87.3325    9.0540 C.ar    1  UNL1        0.0945
     25 C          61.8623   86.2182    8.4377 C.ar    1  UNL1        0.0425
     26 C          60.9289   85.3911    7.6042 C.ar    1  UNL1        0.1215
     27 N          59.5592   85.9941    7.7054 N.ar    1  UNL1       -0.1710
     28 N          59.6461   87.1939    8.6014 N.ar    1  UNL1       -0.2742
     29 H          58.8999   87.7865    8.8490 H       1  UNL1        0.1890
@<TRIPOS>BOND
     1    12    11    1
     2    12    13    1
     3    13    14    1
     4    14    15    1
     5    15    16    1
     6    16    17    1
     7    17     1    1
     8     1     2   ar
     9     2     3   ar
    10     3    18    1
    11    18    19   ar
    12    19    20   ar
    13    20    21   ar
    14    21    22   ar
    15    22    23    1
    16     3     4   ar
    17     4     5   ar
    18     5     6   ar
    19     6     7   ar
    20     7     8   ar
    21     8    24    1
    22    24    25   ar
    23    25    26   ar
    24    26    27   ar
    25    27    28   ar
    26     8     9   ar
    27     9    10   ar
    28    17    12    1
    29    10     1   ar
    30    22    18   ar
    31     9     4   ar
    32    28    24   ar
    33    28    29    1
