@<TRIPOS>MOLECULE
*****
 28 31 0 0 0
SMALL
GASTEIGER

@<TRIPOS>ATOM
      1 C          61.0205   89.3718    8.7322 C.3     1  UNL1        0.0028
      2 C          61.9307   89.6200    9.8984 C.3     1  UNL1        0.0315
      3 C          62.7611   90.8488   10.1229 C.3     1  UNL1        0.0032
      4 C          63.5139   90.6711   11.4080 C.3     1  UNL1        0.0067
      5 C          64.4847   91.5554   12.1330 C.3     1  UNL1        0.0190
      6 C          64.8499   92.8940   11.5632 C.3     1  UNL1        0.0084
      7 C          65.8207   93.7782   12.2882 C.3     1  UNL1        0.0230
      8 C          66.4264   93.3238   13.5831 C.2     1  UNL1       -0.0345
      9 C          67.3972   94.2081   14.3080 C.2     1  UNL1        0.0341
     10 C          68.0029   93.7536   15.6029 C.2     1  UNL1        0.1948
     11 O          68.9738   94.6379   16.3279 O.2     1  UNL1       -0.2866
     12 C          67.6378   92.4150   16.1727 C.2     1  UNL1        0.0380
     13 C          66.6670   91.5308   15.4477 C.2     1  UNL1       -0.0160
     14 C          66.0613   91.9852   14.1529 C.3     1  UNL1        0.0486
     15 C          65.6961   90.6466   14.7228 C.3     1  UNL1        0.0125
     16 C          65.0904   91.1010   13.4279 C.2     1  UNL1       -0.0422
     17 C          64.7253   89.7623   13.9977 C.2     1  UNL1       -0.0339
     18 C          63.7545   88.8781   13.2727 C.3     1  UNL1        0.0281
     19 C          63.1487   89.3325   11.9778 C.3     1  UNL1        0.0333
     20 C          62.7996   87.9984   12.5680 C.3     1  UNL1        0.0031
     21 C          62.1703   88.6829   11.0449 C.3     1  UNL1        0.1415
     22 O          62.0872   87.4752   11.9308 O.3     1  UNL1       -0.3797
     23 H          62.6651   87.5982   12.7001 H       1  UNL1        0.2108
     24 C          61.1994   87.7986   10.3198 C.2     1  UNL1        0.2038
     25 O          61.6948   86.8261    9.2909 O.2     1  UNL1       -0.2910
     26 C          59.7332   87.8870   10.6238 C.3     1  UNL1        0.2044
     27 O          59.2742   88.3024   11.9901 O.3     1  UNL1       -0.3749
     28 H          59.5338   87.6281   12.6373 H       1  UNL1        0.2110
@<TRIPOS>BOND
     1     2     1    1
     2     2     3    1
     3     4     3    1
     4     4     5    1
     5     5     6    1
     6     6     7    1
     7     7     8    1
     8     8     9    2
     9     9    10    1
    10    10    11    2
    11    10    12    1
    12    12    13    2
    13    13    14    1
    14    14    15    1
    15    14    16    1
    16    16    17    2
    17    17    18    1
    18    18    19    1
    19    19    20    1
    20    19    21    1
    21    21    22    1
    22    21    24    1
    23    24    25    2
    24    24    26    1
    25    26    27    1
    26    21     2    1
    27    19     4    1
    28    16     5    1
    29    14     8    1
    30    22    23    1
    31    27    28    1
@<TRIPOS>MOLECULE
*****
 28 31 0 0 0
SMALL
GASTEIGER

@<TRIPOS>ATOM
      1 C          63.4894   91.3871   12.2068 C.3     1  UNL1        0.0028
      2 C          63.5729   89.9489   12.6250 C.3     1  UNL1        0.0315
      3 C          63.1207   88.7683   11.8177 C.3     1  UNL1        0.0032
      4 C          63.3916   87.5287   12.6176 C.3     1  UNL1        0.0067
      5 C          63.1541   86.0760   12.3290 C.3     1  UNL1        0.0190
      6 C          62.5344   85.6615   11.0273 C.3     1  UNL1        0.0084
      7 C          62.2969   84.2089   10.7387 C.3     1  UNL1        0.0230
      8 C          62.6791   83.1706   11.7516 C.2     1  UNL1       -0.0345
      9 C          62.4416   81.7180   11.4629 C.2     1  UNL1        0.0341
     10 C          62.8238   80.6798   12.4759 C.2     1  UNL1        0.1948
     11 O          62.5863   79.2271   12.1872 O.2     1  UNL1       -0.2866
     12 C          63.4435   81.0943   13.7775 C.2     1  UNL1        0.0380
     13 C          63.6810   82.5469   14.0662 C.2     1  UNL1       -0.0160
     14 C          63.2988   83.5851   13.0532 C.3     1  UNL1        0.0486
     15 C          63.9185   83.9996   14.3549 C.3     1  UNL1        0.0125
     16 C          63.5363   85.0378   13.3419 C.2     1  UNL1       -0.0422
     17 C          64.1560   85.4523   14.6435 C.2     1  UNL1       -0.0339
     18 C          64.3935   86.9049   14.9322 C.3     1  UNL1        0.0281
     19 C          64.0113   87.9432   13.9192 C.3     1  UNL1        0.0333
     20 C          64.6323   88.3324   15.2280 C.3     1  UNL1        0.0031
     21 C          64.1233   89.4389   13.9238 C.3     1  UNL1        0.1415
     22 O          64.7404   89.4149   15.2908 O.3     1  UNL1       -0.3797
     23 H          64.8116   88.4973   15.5973 H       1  UNL1        0.2108
     24 C          64.3608   90.8917   14.2124 C.2     1  UNL1        0.2038
     25 O          63.4776   91.6175   15.1835 O.2     1  UNL1       -0.2910
     26 C          65.4815   91.6185   13.5299 C.3     1  UNL1        0.2044
     27 O          66.8599   91.5959   14.1210 O.3     1  UNL1       -0.3749
     28 H          66.8554   92.0650   14.9700 H       1  UNL1        0.2110
@<TRIPOS>BOND
     1     2     1    1
     2     2     3    1
     3     4     3    1
     4     4     5    1
     5     5     6    1
     6     6     7    1
     7     7     8    1
     8     8     9    2
     9     9    10    1
    10    10    11    2
    11    10    12    1
    12    12    13    2
    13    13    14    1
    14    14    15    1
    15    14    16    1
    16    16    17    2
    17    17    18    1
    18    18    19    1
    19    19    20    1
    20    19    21    1
    21    21    22    1
    22    21    24    1
    23    24    25    2
    24    24    26    1
    25    26    27    1
    26    21     2    1
    27    19     4    1
    28    16     5    1
    29    14     8    1
    30    22    23    1
    31    27    28    1
@<TRIPOS>MOLECULE
*****
 28 31 0 0 0
SMALL
GASTEIGER

@<TRIPOS>ATOM
      1 C          65.0141   86.3169   15.3682 C.3     1  UNL1        0.0028
      2 C          64.1787   86.3194   14.1224 C.3     1  UNL1        0.0315
      3 C          63.6684   87.5342   13.4055 C.3     1  UNL1        0.0032
      4 C          62.8813   87.0732   12.2148 C.3     1  UNL1        0.0067
      5 C          62.1459   87.8252   11.1453 C.3     1  UNL1        0.0190
      6 C          62.1220   89.3249   11.1644 C.3     1  UNL1        0.0084
      7 C          61.3867   90.0770   10.0950 C.3     1  UNL1        0.0230
      8 C          60.6751   89.3293    9.0065 C.2     1  UNL1       -0.0345
      9 C          59.9397   90.0814    7.9371 C.2     1  UNL1        0.0341
     10 C          59.2282   89.3337    6.8487 C.2     1  UNL1        0.1948
     11 O          58.4927   90.0858    5.7792 O.2     1  UNL1       -0.2866
     12 C          59.2520   87.8341    6.8297 C.2     1  UNL1        0.0380
     13 C          59.9874   87.0820    7.8990 C.2     1  UNL1       -0.0160
     14 C          60.6989   87.8297    8.9875 C.3     1  UNL1        0.0486
     15 C          60.7227   86.3300    8.9684 C.3     1  UNL1        0.0125
     16 C          61.4343   87.0776   10.0569 C.2     1  UNL1       -0.0422
     17 C          61.4581   85.5779   10.0379 C.2     1  UNL1       -0.0339
     18 C          62.1935   84.8259   11.1073 C.3     1  UNL1        0.0281
     19 C          62.9051   85.5735   12.1958 C.3     1  UNL1        0.0333
     20 C          62.9143   84.0741   12.1549 C.3     1  UNL1        0.0031
     21 C          63.7069   85.1077   13.3747 C.3     1  UNL1        0.1415
     22 O          63.4855   83.6742   12.9923 O.3     1  UNL1       -0.3797
     23 H          62.9464   83.6340   12.1868 H       1  UNL1        0.2108
     24 C          64.4423   84.3556   14.4441 C.2     1  UNL1        0.2038
     25 O          65.9292   84.1811   14.3509 O.2     1  UNL1       -0.2910
     26 C          63.6908   83.7781   15.6067 C.3     1  UNL1        0.2044
     27 O          62.9311   82.4948   15.4458 O.3     1  UNL1       -0.3749
     28 H          62.1956   82.6298   14.8280 H       1  UNL1        0.2110
@<TRIPOS>BOND
     1     2     1    1
     2     2     3    1
     3     4     3    1
     4     4     5    1
     5     5     6    1
     6     6     7    1
     7     7     8    1
     8     8     9    2
     9     9    10    1
    10    10    11    2
    11    10    12    1
    12    12    13    2
    13    13    14    1
    14    14    15    1
    15    14    16    1
    16    16    17    2
    17    17    18    1
    18    18    19    1
    19    19    20    1
    20    19    21    1
    21    21    22    1
    22    21    24    1
    23    24    25    2
    24    24    26    1
    25    26    27    1
    26    21     2    1
    27    19     4    1
    28    16     5    1
    29    14     8    1
    30    22    23    1
    31    27    28    1
@<TRIPOS>MOLECULE
*****
 28 31 0 0 0
SMALL
GASTEIGER

@<TRIPOS>ATOM
      1 C          64.9422   90.9283   14.9287 C.3     1  UNL1        0.0028
      2 C          64.4671   89.6549   14.2941 C.3     1  UNL1        0.0315
      3 C          64.6457   88.2729   14.8493 C.3     1  UNL1        0.0032
      4 C          64.0189   87.3039   13.8913 C.3     1  UNL1        0.0067
      5 C          63.8904   85.8095   13.9154 C.3     1  UNL1        0.0190
      6 C          64.4563   85.0265   15.0629 C.3     1  UNL1        0.0084
      7 C          64.3278   83.5323   15.0870 C.3     1  UNL1        0.0230
      8 C          63.6334   82.8209   13.9637 C.2     1  UNL1       -0.0345
      9 C          63.5049   81.3267   13.9878 C.2     1  UNL1        0.0341
     10 C          62.8105   80.6154   12.8646 C.2     1  UNL1        0.1948
     11 O          62.6819   79.1211   12.8887 O.2     1  UNL1       -0.2866
     12 C          62.2445   81.3984   11.7171 C.2     1  UNL1        0.0380
     13 C          62.3730   82.8926   11.6929 C.2     1  UNL1       -0.0160
     14 C          63.0675   83.6039   12.8162 C.3     1  UNL1        0.0486
     15 C          62.5015   84.3869   11.6688 C.3     1  UNL1        0.0125
     16 C          63.1960   85.0983   12.7921 C.2     1  UNL1       -0.0422
     17 C          62.6301   85.8812   11.6446 C.2     1  UNL1       -0.0339
     18 C          62.7586   87.3755   11.6205 C.3     1  UNL1        0.0281
     19 C          63.4530   88.0869   12.7438 C.3     1  UNL1        0.0333
     20 C          62.8789   88.8474   11.5854 C.3     1  UNL1        0.0031
     21 C          63.7300   89.5398   12.9927 C.3     1  UNL1        0.1415
     22 O          63.0499   89.9163   11.7099 O.3     1  UNL1       -0.3797
     23 H          62.7272   89.1155   11.2679 H       1  UNL1        0.2108
     24 C          63.8585   91.0341   12.9686 C.2     1  UNL1        0.2038
     25 O          63.0636   91.8708   13.9267 O.2     1  UNL1       -0.2910
     26 C          64.7821   91.6917   11.9864 C.3     1  UNL1        0.2044
     27 O          64.2768   92.0869   10.6305 O.3     1  UNL1       -0.3749
     28 H          64.0448   91.2908   10.1273 H       1  UNL1        0.2110
@<TRIPOS>BOND
     1     2     1    1
     2     2     3    1
     3     4     3    1
     4     4     5    1
     5     5     6    1
     6     6     7    1
     7     7     8    1
     8     8     9    2
     9     9    10    1
    10    10    11    2
    11    10    12    1
    12    12    13    2
    13    13    14    1
    14    14    15    1
    15    14    16    1
    16    16    17    2
    17    17    18    1
    18    18    19    1
    19    19    20    1
    20    19    21    1
    21    21    22    1
    22    21    24    1
    23    24    25    2
    24    24    26    1
    25    26    27    1
    26    21     2    1
    27    19     4    1
    28    16     5    1
    29    14     8    1
    30    22    23    1
    31    27    28    1
@<TRIPOS>MOLECULE
*****
 28 31 0 0 0
SMALL
GASTEIGER

@<TRIPOS>ATOM
      1 C          66.5811   93.8611   13.7616 C.3     1  UNL1        0.0028
      2 C          65.7442   92.6741   13.3867 C.3     1  UNL1        0.0315
      3 C          64.8749   92.5571   12.1699 C.3     1  UNL1        0.0032
      4 C          64.2231   91.2064   12.1940 C.3     1  UNL1        0.0067
      5 C          63.2651   90.5373   11.2535 C.3     1  UNL1        0.0190
      6 C          62.7987   91.2551   10.0217 C.3     1  UNL1        0.0084
      7 C          61.8407   90.5861    9.0812 C.3     1  UNL1        0.0230
      8 C          61.3490   89.1992    9.3724 C.2     1  UNL1       -0.0345
      9 C          60.3911   88.5302    8.4319 C.2     1  UNL1        0.0341
     10 C          59.8994   87.1433    8.7232 C.2     1  UNL1        0.1948
     11 O          58.9414   86.4742    7.7826 O.2     1  UNL1       -0.2866
     12 C          60.3657   86.4255    9.9549 C.2     1  UNL1        0.0380
     13 C          61.3237   87.0945   10.8955 C.2     1  UNL1       -0.0160
     14 C          61.8154   88.4814   10.6042 C.3     1  UNL1        0.0486
     15 C          62.2817   87.7636   11.8360 C.3     1  UNL1        0.0125
     16 C          62.7734   89.1505   11.5447 C.2     1  UNL1       -0.0422
     17 C          63.2397   88.4327   12.7765 C.2     1  UNL1       -0.0339
     18 C          64.1977   89.1017   13.7170 C.3     1  UNL1        0.0281
     19 C          64.6894   90.4886   13.4258 C.3     1  UNL1        0.0333
     20 C          65.1410   89.7501   14.6508 C.3     1  UNL1        0.0031
     21 C          65.6295   91.3957   14.1629 C.3     1  UNL1        0.1415
     22 O          65.8308   90.3622   15.2313 O.3     1  UNL1       -0.3797
     23 H          65.3030   89.5753   15.0235 H       1  UNL1        0.2108
     24 C          66.5875   92.0648   15.1035 C.2     1  UNL1        0.2038
     25 O          68.0531   92.0947   14.7855 O.2     1  UNL1       -0.2910
     26 C          66.0799   92.7040   16.3619 C.3     1  UNL1        0.2044
     27 O          64.6150   92.6694   16.6825 O.3     1  UNL1       -0.3749
     28 H          64.1280   93.1927   16.0269 H       1  UNL1        0.2110
@<TRIPOS>BOND
     1     2     1    1
     2     2     3    1
     3     4     3    1
     4     4     5    1
     5     5     6    1
     6     6     7    1
     7     7     8    1
     8     8     9    2
     9     9    10    1
    10    10    11    2
    11    10    12    1
    12    12    13    2
    13    13    14    1
    14    14    15    1
    15    14    16    1
    16    16    17    2
    17    17    18    1
    18    18    19    1
    19    19    20    1
    20    19    21    1
    21    21    22    1
    22    21    24    1
    23    24    25    2
    24    24    26    1
    25    26    27    1
    26    21     2    1
    27    19     4    1
    28    16     5    1
    29    14     8    1
    30    22    23    1
    31    27    28    1
@<TRIPOS>MOLECULE
*****
 28 31 0 0 0
SMALL
GASTEIGER

@<TRIPOS>ATOM
      1 C          60.7407   85.9879   10.4324 C.3     1  UNL1        0.0028
      2 C          61.5204   87.2347   10.7283 C.3     1  UNL1        0.0315
      3 C          62.3681   87.4774   11.9417 C.3     1  UNL1        0.0032
      4 C          62.9608   88.8503   11.8260 C.3     1  UNL1        0.0067
      5 C          63.8768   89.6272   12.7247 C.3     1  UNL1        0.0190
      6 C          64.3582   89.0212   14.0096 C.3     1  UNL1        0.0084
      7 C          65.2741   89.7980   14.9083 C.3     1  UNL1        0.0230
      8 C          65.7087   91.1808   14.5221 C.2     1  UNL1       -0.0345
      9 C          66.6246   91.9576   15.4208 C.2     1  UNL1        0.0341
     10 C          67.0591   93.3403   15.0345 C.2     1  UNL1        0.1948
     11 O          67.9751   94.1171   15.9332 O.2     1  UNL1       -0.2866
     12 C          66.5777   93.9462   13.7496 C.2     1  UNL1        0.0380
     13 C          65.6618   93.1695   12.8509 C.2     1  UNL1       -0.0160
     14 C          65.2273   91.7867   13.2371 C.3     1  UNL1        0.0486
     15 C          64.7459   92.3927   11.9522 C.3     1  UNL1        0.0125
     16 C          64.3113   91.0099   12.3384 C.2     1  UNL1       -0.0422
     17 C          63.8299   91.6158   11.0535 C.2     1  UNL1       -0.0339
     18 C          62.9140   90.8391   10.1548 C.3     1  UNL1        0.0281
     19 C          62.4794   89.4563   10.5411 C.3     1  UNL1        0.0333
     20 C          62.0118   90.0840    9.2615 C.3     1  UNL1        0.0031
     21 C          61.5892   88.4578    9.8626 C.3     1  UNL1        0.1415
     22 O          61.3568   89.4018    8.7203 O.3     1  UNL1       -0.3797
     23 H          61.8471   90.2242    8.8756 H       1  UNL1        0.2108
     24 C          60.6732   87.6810    8.9639 C.2     1  UNL1        0.2038
     25 O          61.2051   86.5258    8.1686 O.2     1  UNL1       -0.2910
     26 C          59.2254   88.0593    8.8607 C.3     1  UNL1        0.2044
     27 O          58.5779   88.1874    7.5137 O.3     1  UNL1       -0.3749
     28 H          58.9747   88.9310    7.0336 H       1  UNL1        0.2110
@<TRIPOS>BOND
     1     2     1    1
     2     2     3    1
     3     4     3    1
     4     4     5    1
     5     5     6    1
     6     6     7    1
     7     7     8    1
     8     8     9    2
     9     9    10    1
    10    10    11    2
    11    10    12    1
    12    12    13    2
    13    13    14    1
    14    14    15    1
    15    14    16    1
    16    16    17    2
    17    17    18    1
    18    18    19    1
    19    19    20    1
    20    19    21    1
    21    21    22    1
    22    21    24    1
    23    24    25    2
    24    24    26    1
    25    26    27    1
    26    21     2    1
    27    19     4    1
    28    16     5    1
    29    14     8    1
    30    22    23    1
    31    27    28    1
@<TRIPOS>MOLECULE
*****
 28 31 0 0 0
SMALL
GASTEIGER

@<TRIPOS>ATOM
      1 C          66.3991   90.9309   15.3699 C.3     1  UNL1        0.0028
      2 C          65.4868   90.7800   14.1888 C.3     1  UNL1        0.0315
      3 C          64.6281   89.5884   13.8844 C.3     1  UNL1        0.0032
      4 C          63.8837   89.8662   12.6123 C.3     1  UNL1        0.0067
      5 C          62.8943   89.0539   11.8304 C.3     1  UNL1        0.0190
      6 C          62.4958   87.6905   12.3124 C.3     1  UNL1        0.0084
      7 C          61.5065   86.8781   11.5305 C.3     1  UNL1        0.0230
      8 C          60.9156   87.4292   10.2666 C.2     1  UNL1       -0.0345
      9 C          59.9263   86.6169    9.4848 C.2     1  UNL1        0.0341
     10 C          59.3356   87.1679    8.2210 C.2     1  UNL1        0.1948
     11 O          58.3462   86.3556    7.4390 O.2     1  UNL1       -0.2866
     12 C          59.7341   88.5313    7.7390 C.2     1  UNL1        0.0380
     13 C          60.7235   89.3436    8.5208 C.2     1  UNL1       -0.0160
     14 C          61.3142   88.7926    9.7846 C.3     1  UNL1        0.0486
     15 C          61.7128   90.1560    9.3026 C.3     1  UNL1        0.0125
     16 C          62.3036   89.6049   10.5665 C.2     1  UNL1       -0.0422
     17 C          62.7022   90.9683   10.0846 C.2     1  UNL1       -0.0339
     18 C          63.6915   91.7807   10.8664 C.3     1  UNL1        0.0281
     19 C          64.2823   91.2296   12.1303 C.3     1  UNL1        0.0333
     20 C          64.6648   92.5902   11.6277 C.3     1  UNL1        0.0031
     21 C          65.2730   91.7944   13.1046 C.3     1  UNL1        0.1415
     22 O          65.3875   93.0541   12.2984 O.3     1  UNL1       -0.3797
     23 H          64.8092   92.9947   11.5219 H       1  UNL1        0.2108
     24 C          66.2624   92.6067   13.8865 C.2     1  UNL1        0.2038
     25 O          65.7833   93.5618   14.9392 O.2     1  UNL1       -0.2910
     26 C          67.7308   92.4639   13.6156 C.3     1  UNL1        0.2044
     27 O          68.2029   91.9808   12.2763 O.3     1  UNL1       -0.3749
     28 H          67.9239   91.0608   12.1477 H       1  UNL1        0.2110
@<TRIPOS>BOND
     1     2     1    1
     2     2     3    1
     3     4     3    1
     4     4     5    1
     5     5     6    1
     6     6     7    1
     7     7     8    1
     8     8     9    2
     9     9    10    1
    10    10    11    2
    11    10    12    1
    12    12    13    2
    13    13    14    1
    14    14    15    1
    15    14    16    1
    16    16    17    2
    17    17    18    1
    18    18    19    1
    19    19    20    1
    20    19    21    1
    21    21    22    1
    22    21    24    1
    23    24    25    2
    24    24    26    1
    25    26    27    1
    26    21     2    1
    27    19     4    1
    28    16     5    1
    29    14     8    1
    30    22    23    1
    31    27    28    1
@<TRIPOS>MOLECULE
*****
 28 31 0 0 0
SMALL
GASTEIGER

@<TRIPOS>ATOM
      1 C          59.6267   88.4920    7.1015 C.3     1  UNL1        0.0028
      2 C          60.4908   88.6593    8.3161 C.3     1  UNL1        0.0315
      3 C          61.3271   89.8604    8.6445 C.3     1  UNL1        0.0032
      4 C          62.0234   89.5984    9.9469 C.3     1  UNL1        0.0067
      5 C          62.9748   90.4249   10.7605 C.3     1  UNL1        0.0190
      6 C          63.3808   91.7879   10.2839 C.3     1  UNL1        0.0084
      7 C          64.3321   92.6144   11.0974 C.3     1  UNL1        0.0230
      8 C          64.8775   92.0778   12.3877 C.2     1  UNL1       -0.0345
      9 C          65.8288   92.9043   13.2013 C.2     1  UNL1        0.0341
     10 C          66.3741   92.3676   14.4914 C.2     1  UNL1        0.1948
     11 O          67.3255   93.1941   15.3051 O.2     1  UNL1       -0.2866
     12 C          65.9681   91.0046   14.9681 C.2     1  UNL1        0.0380
     13 C          65.0168   90.1781   14.1545 C.2     1  UNL1       -0.0160
     14 C          64.4715   90.7147   12.8643 C.3     1  UNL1        0.0486
     15 C          64.0655   89.3516   13.3410 C.3     1  UNL1        0.0125
     16 C          63.5201   89.8883   12.0507 C.2     1  UNL1       -0.0422
     17 C          63.1141   88.5252   12.5273 C.2     1  UNL1       -0.0339
     18 C          62.1628   87.6987   11.7138 C.3     1  UNL1        0.0281
     19 C          61.6174   88.2353   10.4235 C.3     1  UNL1        0.0333
     20 C          61.2266   86.8754   10.9214 C.3     1  UNL1        0.0031
     21 C          60.6702   87.6550    9.4157 C.3     1  UNL1        0.1415
     22 O          60.5345   86.4004   10.2266 O.3     1  UNL1       -0.3797
     23 H          61.0815   86.4704   11.0246 H       1  UNL1        0.2108
     24 C          59.7188   86.8285    8.6020 C.2     1  UNL1        0.2038
     25 O          58.2397   87.0396    8.7344 O.2     1  UNL1       -0.2910
     26 C          60.2467   85.7910    7.6560 C.3     1  UNL1        0.2044
     27 O          61.7184   85.5065    7.6000 O.3     1  UNL1       -0.3749
     28 H          62.1859   86.2865    7.2628 H       1  UNL1        0.2110
@<TRIPOS>BOND
     1     2     1    1
     2     2     3    1
     3     4     3    1
     4     4     5    1
     5     5     6    1
     6     6     7    1
     7     7     8    1
     8     8     9    2
     9     9    10    1
    10    10    11    2
    11    10    12    1
    12    12    13    2
    13    13    14    1
    14    14    15    1
    15    14    16    1
    16    16    17    2
    17    17    18    1
    18    18    19    1
    19    19    20    1
    20    19    21    1
    21    21    22    1
    22    21    24    1
    23    24    25    2
    24    24    26    1
    25    26    27    1
    26    21     2    1
    27    19     4    1
    28    16     5    1
    29    14     8    1
    30    22    23    1
    31    27    28    1
@<TRIPOS>MOLECULE
*****
 28 31 0 0 0
SMALL
GASTEIGER

@<TRIPOS>ATOM
      1 C          62.0758   80.8765   11.9050 C.3     1  UNL1        0.0028
      2 C          62.5313   82.2039   12.4347 C.3     1  UNL1        0.0315
      3 C          62.3910   83.5257   11.7396 C.3     1  UNL1        0.0032
      4 C          62.9800   84.5812   12.6277 C.3     1  UNL1        0.0067
      5 C          63.1222   86.0656   12.4644 C.3     1  UNL1        0.0190
      6 C          62.6179   86.7350   11.2204 C.3     1  UNL1        0.0084
      7 C          62.7601   88.2192   11.0570 C.3     1  UNL1        0.0230
      8 C          63.4068   89.0341   12.1377 C.2     1  UNL1       -0.0345
      9 C          63.5490   90.5184   11.9744 C.2     1  UNL1        0.0341
     10 C          64.1956   91.3332   13.0550 C.2     1  UNL1        0.1948
     11 O          64.3379   92.8176   12.8917 O.2     1  UNL1       -0.2866
     12 C          64.7000   90.6638   14.2990 C.2     1  UNL1        0.0380
     13 C          64.5577   89.1796   14.4624 C.2     1  UNL1       -0.0160
     14 C          63.9111   88.3647   13.3817 C.3     1  UNL1        0.0486
     15 C          64.4155   87.6953   14.6257 C.3     1  UNL1        0.0125
     16 C          63.7689   86.8804   13.5450 C.2     1  UNL1       -0.0422
     17 C          64.2732   86.2110   14.7890 C.2     1  UNL1       -0.0339
     18 C          64.1310   84.7268   14.9524 C.3     1  UNL1        0.0281
     19 C          63.4843   83.9118   13.8717 C.3     1  UNL1        0.0333
     20 C          63.9966   83.2658   15.1248 C.3     1  UNL1        0.0031
     21 C          63.2070   82.4426   13.7524 C.3     1  UNL1        0.1415
     22 O          63.8225   82.1905   15.0969 O.3     1  UNL1       -0.3797
     23 H          64.1309   83.0294   15.4738 H       1  UNL1        0.2108
     24 C          63.0648   80.9583   13.9157 C.2     1  UNL1        0.2038
     25 O          64.2815   80.1070   14.1273 O.2     1  UNL1       -0.2910
     26 C          61.7057   80.3253   13.8674 C.3     1  UNL1        0.2044
     27 O          60.5945   80.8692   14.7155 O.3     1  UNL1       -0.3749
     28 H          60.8050   80.7304   15.6521 H       1  UNL1        0.2110
@<TRIPOS>BOND
     1     2     1    1
     2     2     3    1
     3     4     3    1
     4     4     5    1
     5     5     6    1
     6     6     7    1
     7     7     8    1
     8     8     9    2
     9     9    10    1
    10    10    11    2
    11    10    12    1
    12    12    13    2
    13    13    14    1
    14    14    15    1
    15    14    16    1
    16    16    17    2
    17    17    18    1
    18    18    19    1
    19    19    20    1
    20    19    21    1
    21    21    22    1
    22    21    24    1
    23    24    25    2
    24    24    26    1
    25    26    27    1
    26    21     2    1
    27    19     4    1
    28    16     5    1
    29    14     8    1
    30    22    23    1
    31    27    28    1
