@<TRIPOS>MOLECULE
*****
 27 29 0 0 0
SMALL
GASTEIGER

@<TRIPOS>ATOM
      1 C          63.2598   83.2412   13.6556 C.ar    1  UNL1        0.0304
      2 C          64.1308   83.7870   14.7480 C.ar    1  UNL1        0.0972
      3 N          64.4347   85.2549   14.8021 N.ar    1  UNL1       -0.2410
      4 C          63.8675   86.1769   13.7637 C.ar    1  UNL1        0.1179
      5 C          62.9966   85.6312   12.6713 C.ar    1  UNL1        0.1017
      6 C          62.6927   84.1632   12.6172 C.ar    1  UNL1        0.0205
      7 N          62.4294   86.5532   11.6329 N.ar    1  UNL1       -0.2282
      8 N          61.5500   86.1540   10.4852 N.ar    1  UNL1       -0.1611
      9 C          61.2192   87.3904    9.7029 C.ar    1  UNL1        0.1739
     10 C          61.8942   88.5537   10.3672 C.ar    1  UNL1        0.0411
     11 C          61.9244   90.0172   10.0400 C.ar    1  UNL1        0.0030
     12 C          62.7025   90.9633   10.9056 C.ar    1  UNL1        0.0001
     13 C          63.4505   90.4459   12.0984 C.ar    1  UNL1        0.0015
     14 C          63.4203   88.9823   12.4256 C.ar    1  UNL1        0.0192
     15 C          62.6421   88.0362   11.5600 C.ar    1  UNL1        0.0843
     16 C          60.3636   87.4527    8.4724 C.3     1  UNL1        0.4365
     17 F          59.5080   87.5150    7.2419 F       1  UNL1       -0.1643
     18 F          59.5646   88.5650    9.0843 F       1  UNL1       -0.1643
     19 F          61.1626   86.3404    7.8606 F       1  UNL1       -0.1643
     20 C          62.6521   80.3054   13.5473 C.3     1  UNL1        0.0428
     21 C          62.9559   81.7733   13.6015 C.3     1  UNL1        0.1960
     22 O          62.5066   81.8135   15.0320 O.3     1  UNL1       -0.3751
     23 H          62.5950   82.7171   15.3734 H       1  UNL1        0.2110
     24 C          63.4053   81.7331   12.1709 C.3     1  UNL1        0.4231
     25 F          63.8546   81.6928   10.7403 F       1  UNL1       -0.1673
     26 F          64.8791   82.0014   12.2457 F       1  UNL1       -0.1673
     27 F          61.9982   81.4465   11.7370 F       1  UNL1       -0.1673
@<TRIPOS>BOND
     1    21    20    1
     2    21    22    1
     3    21     1    1
     4     1     2   ar
     5     2     3   ar
     6     3     4   ar
     7     4     5   ar
     8     5     7    1
     9     7     8   ar
    10     8     9   ar
    11     9    16    1
    12    16    17    1
    13    16    18    1
    14    16    19    1
    15     9    10   ar
    16    10    11   ar
    17    11    12   ar
    18    12    13   ar
    19    13    14   ar
    20    14    15   ar
    21     5     6   ar
    22    21    24    1
    23    24    25    1
    24    24    26    1
    25    24    27    1
    26     6     1   ar
    27    15     7   ar
    28    15    10   ar
    29    22    23    1
@<TRIPOS>MOLECULE
*****
 27 29 0 0 0
SMALL
GASTEIGER

@<TRIPOS>ATOM
      1 C          60.9625   87.9576    9.9645 C.ar    1  UNL1        0.0304
      2 C          59.7691   88.0752   10.8656 C.ar    1  UNL1        0.0972
      3 N          59.7578   89.0944   11.9660 N.ar    1  UNL1       -0.2410
      4 C          60.9399   89.9961   12.1653 C.ar    1  UNL1        0.1179
      5 C          62.1332   89.8786   11.2642 C.ar    1  UNL1        0.1017
      6 C          62.1445   88.8593   10.1637 C.ar    1  UNL1        0.0205
      7 N          63.3153   90.7803   11.4634 N.ar    1  UNL1       -0.2282
      8 N          64.0031   91.5809   10.3976 N.ar    1  UNL1       -0.1611
      9 C          65.1299   92.3351   11.0390 C.ar    1  UNL1        0.1739
     10 C          65.1385   92.0007   12.5012 C.ar    1  UNL1        0.0411
     11 C          66.0227   92.4470   13.6277 C.ar    1  UNL1        0.0030
     12 C          65.7853   91.9324   15.0165 C.ar    1  UNL1        0.0001
     13 C          64.6638   90.9715   15.2788 C.ar    1  UNL1        0.0015
     14 C          63.7796   90.5252   14.1524 C.ar    1  UNL1        0.0192
     15 C          64.0170   91.0398   12.7636 C.ar    1  UNL1        0.0843
     16 C          66.0812   93.2611   10.3408 C.3     1  UNL1        0.4365
     17 F          67.0325   94.1872    9.6425 F       1  UNL1       -0.1643
     18 F          67.0161   92.1145   10.0937 F       1  UNL1       -0.1643
     19 F          65.1463   94.4078   10.5878 F       1  UNL1       -0.1643
     20 C          60.9853   85.9191    7.7636 C.3     1  UNL1        0.0428
     21 C          60.9738   86.9384    8.8640 C.3     1  UNL1        0.1960
     22 O          60.0044   87.7730    8.0808 O.3     1  UNL1       -0.3751
     23 H          59.7884   88.5744    8.5829 H       1  UNL1        0.2110
     24 C          61.9434   86.1036    9.6473 C.3     1  UNL1        0.4231
     25 F          62.9129   85.2690   10.4304 F       1  UNL1       -0.1673
     26 F          61.1759   85.7120   10.8750 F       1  UNL1       -0.1673
     27 F          62.9761   86.2992    8.5771 F       1  UNL1       -0.1673
@<TRIPOS>BOND
     1    21    20    1
     2    21    22    1
     3    21     1    1
     4     1     2   ar
     5     2     3   ar
     6     3     4   ar
     7     4     5   ar
     8     5     7    1
     9     7     8   ar
    10     8     9   ar
    11     9    16    1
    12    16    17    1
    13    16    18    1
    14    16    19    1
    15     9    10   ar
    16    10    11   ar
    17    11    12   ar
    18    12    13   ar
    19    13    14   ar
    20    14    15   ar
    21     5     6   ar
    22    21    24    1
    23    24    25    1
    24    24    26    1
    25    24    27    1
    26     6     1   ar
    27    15     7   ar
    28    15    10   ar
    29    22    23    1
@<TRIPOS>MOLECULE
*****
 27 29 0 0 0
SMALL
GASTEIGER

@<TRIPOS>ATOM
      1 C          63.3068   83.1645   13.8509 C.ar    1  UNL1        0.0304
      2 C          64.0813   83.3466   15.1224 C.ar    1  UNL1        0.0972
      3 N          64.5319   84.7161   15.5366 N.ar    1  UNL1       -0.2410
      4 C          64.2080   85.9034   14.6791 C.ar    1  UNL1        0.1179
      5 C          63.4334   85.7214   13.4076 C.ar    1  UNL1        0.1017
      6 C          62.9828   84.3519   12.9934 C.ar    1  UNL1        0.0205
      7 N          63.1095   86.9088   12.5501 N.ar    1  UNL1       -0.2282
      8 N          63.5638   88.3184   12.7880 N.ar    1  UNL1       -0.1611
      9 C          63.0094   89.1757   11.6891 C.ar    1  UNL1        0.1739
     10 C          62.2125   88.2960   10.7721 C.ar    1  UNL1        0.0411
     11 C          61.4385   88.5898    9.5213 C.ar    1  UNL1        0.0030
     12 C          60.7263   87.4824    8.8026 C.ar    1  UNL1        0.0001
     13 C          60.7881   86.0814    9.3347 C.ar    1  UNL1        0.0015
     14 C          61.5621   85.7876   10.5855 C.ar    1  UNL1        0.0192
     15 C          62.2743   86.8950   11.3042 C.ar    1  UNL1        0.0843
     16 C          63.2158   90.6534   11.5344 C.3     1  UNL1        0.4365
     17 F          63.4221   92.1311   11.3798 F       1  UNL1       -0.1643
     18 F          62.9911   90.8388   13.0059 F       1  UNL1       -0.1643
     19 F          63.4405   90.4680   10.0631 F       1  UNL1       -0.1643
     20 C          62.4055   80.4257   13.0224 C.3     1  UNL1        0.0428
     21 C          62.8561   81.7951   13.4367 C.3     1  UNL1        0.1960
     22 O          62.1971   81.6083   14.7711 O.3     1  UNL1       -0.3751
     23 H          62.3297   82.4029   15.3114 H       1  UNL1        0.2110
     24 C          63.5152   81.9819   12.1022 C.3     1  UNL1        0.4231
     25 F          64.1742   82.1687   10.7677 F       1  UNL1       -0.1673
     26 F          64.9814   81.9837   12.4186 F       1  UNL1       -0.1673
     27 F          62.1683   82.0267   11.4434 F       1  UNL1       -0.1673
@<TRIPOS>BOND
     1    21    20    1
     2    21    22    1
     3    21     1    1
     4     1     2   ar
     5     2     3   ar
     6     3     4   ar
     7     4     5   ar
     8     5     7    1
     9     7     8   ar
    10     8     9   ar
    11     9    16    1
    12    16    17    1
    13    16    18    1
    14    16    19    1
    15     9    10   ar
    16    10    11   ar
    17    11    12   ar
    18    12    13   ar
    19    13    14   ar
    20    14    15   ar
    21     5     6   ar
    22    21    24    1
    23    24    25    1
    24    24    26    1
    25    24    27    1
    26     6     1   ar
    27    15     7   ar
    28    15    10   ar
    29    22    23    1
@<TRIPOS>MOLECULE
*****
 27 29 0 0 0
SMALL
GASTEIGER

@<TRIPOS>ATOM
      1 C          65.1961   91.4662   14.9215 C.ar    1  UNL1        0.0304
      2 C          64.4911   91.7431   16.2162 C.ar    1  UNL1        0.0972
      3 N          63.5264   90.7393   16.7745 N.ar    1  UNL1       -0.2410
      4 C          63.2667   89.4585   16.0382 C.ar    1  UNL1        0.1179
      5 C          63.9716   89.1815   14.7435 C.ar    1  UNL1        0.1017
      6 C          64.9364   90.1854   14.1851 C.ar    1  UNL1        0.0205
      7 N          63.7120   87.9008   14.0071 N.ar    1  UNL1       -0.2282
      8 N          63.9797   86.5177   14.5222 N.ar    1  UNL1       -0.1611
      9 C          63.5722   85.5405   13.4598 C.ar    1  UNL1        0.1739
     10 C          63.0525   86.3195   12.2880 C.ar    1  UNL1        0.0411
     11 C          62.5118   85.8891   10.9568 C.ar    1  UNL1        0.0030
     12 C          62.0575   86.9174    9.9638 C.ar    1  UNL1        0.0001
     13 C          62.1439   88.3762   10.3021 C.ar    1  UNL1        0.0015
     14 C          62.6846   88.8067   11.6333 C.ar    1  UNL1        0.0192
     15 C          63.1389   87.7783   12.6263 C.ar    1  UNL1        0.0843
     16 C          63.6675   84.0464   13.5527 C.3     1  UNL1        0.4365
     17 F          63.7628   82.5523   13.6457 F       1  UNL1       -0.1643
     18 F          62.2656   83.9899   14.0833 F       1  UNL1       -0.1643
     19 F          65.0693   84.1028   13.0221 F       1  UNL1       -0.1643
     20 C          67.1255   93.4736   13.8048 C.3     1  UNL1        0.0428
     21 C          66.1608   92.4699   14.3631 C.3     1  UNL1        0.1960
     22 O          65.2273   92.7302   13.2182 O.3     1  UNL1       -0.3751
     23 H          64.4379   92.1743   13.3118 H       1  UNL1        0.2110
     24 C          67.0942   92.2096   15.5082 C.3     1  UNL1        0.4231
     25 F          68.0277   91.9493   16.6531 F       1  UNL1       -0.1673
     26 F          66.9298   93.4112   16.3908 F       1  UNL1       -0.1673
     27 F          67.4965   90.9063   14.8839 F       1  UNL1       -0.1673
@<TRIPOS>BOND
     1    21    20    1
     2    21    22    1
     3    21     1    1
     4     1     2   ar
     5     2     3   ar
     6     3     4   ar
     7     4     5   ar
     8     5     7    1
     9     7     8   ar
    10     8     9   ar
    11     9    16    1
    12    16    17    1
    13    16    18    1
    14    16    19    1
    15     9    10   ar
    16    10    11   ar
    17    11    12   ar
    18    12    13   ar
    19    13    14   ar
    20    14    15   ar
    21     5     6   ar
    22    21    24    1
    23    24    25    1
    24    24    26    1
    25    24    27    1
    26     6     1   ar
    27    15     7   ar
    28    15    10   ar
    29    22    23    1
@<TRIPOS>MOLECULE
*****
 27 29 0 0 0
SMALL
GASTEIGER

@<TRIPOS>ATOM
      1 C          63.8779   83.4042   12.9692 C.ar    1  UNL1        0.0304
      2 C          63.8343   82.8148   14.3479 C.ar    1  UNL1        0.0972
      3 N          63.8221   83.7144   15.5481 N.ar    1  UNL1       -0.2410
      4 C          63.8534   85.2035   15.3696 C.ar    1  UNL1        0.1179
      5 C          63.8969   85.7929   13.9910 C.ar    1  UNL1        0.1017
      6 C          63.9091   84.8932   12.7907 C.ar    1  UNL1        0.0205
      7 N          63.9282   87.2819   13.8125 N.ar    1  UNL1       -0.2282
      8 N          64.5438   88.2705   14.7579 N.ar    1  UNL1       -0.1611
      9 C          64.3454   89.6433   14.1869 C.ar    1  UNL1        0.1739
     10 C          63.6071   89.5032   12.8887 C.ar    1  UNL1        0.0411
     11 C          63.1364   90.5159   11.8874 C.ar    1  UNL1        0.0030
     12 C          62.4078   90.0692   10.6547 C.ar    1  UNL1        0.0001
     13 C          62.1500   88.6098   10.4233 C.ar    1  UNL1        0.0015
     14 C          62.6207   87.5970   11.4246 C.ar    1  UNL1        0.0192
     15 C          63.3493   88.0437   12.6573 C.ar    1  UNL1        0.0843
     16 C          64.8046   90.9303   14.8055 C.3     1  UNL1        0.4365
     17 F          65.2639   92.2174   15.4241 F       1  UNL1       -0.1643
     18 F          65.8982   91.0312   13.7839 F       1  UNL1       -0.1643
     19 F          63.7110   90.8295   15.8271 F       1  UNL1       -0.1643
     20 C          63.9023   81.6050   10.5688 C.3     1  UNL1        0.0428
     21 C          63.8901   82.5046   11.7690 C.3     1  UNL1        0.1960
     22 O          65.0983   83.2217   11.2437 O.3     1  UNL1       -0.3751
     23 H          65.3513   83.9248   11.8622 H       1  UNL1        0.2110
     24 C          62.6818   81.7874   12.2943 C.3     1  UNL1        0.4231
     25 F          61.4736   81.0703   12.8195 F       1  UNL1       -0.1673
     26 F          63.2208   80.4732   12.7762 F       1  UNL1       -0.1673
     27 F          61.8251   82.9632   11.9286 F       1  UNL1       -0.1673
@<TRIPOS>BOND
     1    21    20    1
     2    21    22    1
     3    21     1    1
     4     1     2   ar
     5     2     3   ar
     6     3     4   ar
     7     4     5   ar
     8     5     7    1
     9     7     8   ar
    10     8     9   ar
    11     9    16    1
    12    16    17    1
    13    16    18    1
    14    16    19    1
    15     9    10   ar
    16    10    11   ar
    17    11    12   ar
    18    12    13   ar
    19    13    14   ar
    20    14    15   ar
    21     5     6   ar
    22    21    24    1
    23    24    25    1
    24    24    26    1
    25    24    27    1
    26     6     1   ar
    27    15     7   ar
    28    15    10   ar
    29    22    23    1
@<TRIPOS>MOLECULE
*****
 27 29 0 0 0
SMALL
GASTEIGER

@<TRIPOS>ATOM
      1 C          63.4315   83.4434   12.2566 C.ar    1  UNL1        0.0304
      2 C          64.2583   82.6816   11.2637 C.ar    1  UNL1        0.0972
      3 N          64.3053   83.1232    9.8309 N.ar    1  UNL1       -0.2410
      4 C          63.5254   84.3267    9.3911 C.ar    1  UNL1        0.1179
      5 C          62.6986   85.0886   10.3840 C.ar    1  UNL1        0.1017
      6 C          62.6516   84.6469   11.8168 C.ar    1  UNL1        0.0205
      7 N          61.9187   86.2921    9.9441 N.ar    1  UNL1       -0.2282
      8 N          60.9220   86.3357    8.8241 N.ar    1  UNL1       -0.1611
      9 C          60.3859   87.7338    8.7349 C.ar    1  UNL1        0.1739
     10 C          61.0514   88.5542    9.7999 C.ar    1  UNL1        0.0411
     11 C          60.9171   89.9975   10.1856 C.ar    1  UNL1        0.0030
     12 C          61.7302   90.5497   11.3187 C.ar    1  UNL1        0.0001
     13 C          62.6775   89.6586   12.0661 C.ar    1  UNL1        0.0015
     14 C          62.8118   88.2153   11.6803 C.ar    1  UNL1        0.0192
     15 C          61.9987   87.6631   10.5472 C.ar    1  UNL1        0.0843
     16 C          59.3639   88.2253    7.7532 C.3     1  UNL1        0.4365
     17 F          58.3417   88.7167    6.7714 F       1  UNL1       -0.1643
     18 F          58.5214   87.0141    8.0238 F       1  UNL1       -0.1643
     19 F          60.2062   89.4365    7.4825 F       1  UNL1       -0.1643
     20 C          63.3374   82.5602   15.1220 C.3     1  UNL1        0.0428
     21 C          63.3845   83.0019   13.6893 C.3     1  UNL1        0.1960
     22 O          63.7853   84.3794   14.1271 O.3     1  UNL1       -0.3751
     23 H          63.9004   84.9456   13.3480 H       1  UNL1        0.2110
     24 C          62.9836   81.6242   13.2515 C.3     1  UNL1        0.4231
     25 F          62.5829   80.2467   12.8138 F       1  UNL1       -0.1673
     26 F          61.6471   81.8247   12.6009 F       1  UNL1       -0.1673
     27 F          64.2613   81.0742   13.8130 F       1  UNL1       -0.1673
@<TRIPOS>BOND
     1    21    20    1
     2    21    22    1
     3    21     1    1
     4     1     2   ar
     5     2     3   ar
     6     3     4   ar
     7     4     5   ar
     8     5     7    1
     9     7     8   ar
    10     8     9   ar
    11     9    16    1
    12    16    17    1
    13    16    18    1
    14    16    19    1
    15     9    10   ar
    16    10    11   ar
    17    11    12   ar
    18    12    13   ar
    19    13    14   ar
    20    14    15   ar
    21     5     6   ar
    22    21    24    1
    23    24    25    1
    24    24    26    1
    25    24    27    1
    26     6     1   ar
    27    15     7   ar
    28    15    10   ar
    29    22    23    1
@<TRIPOS>MOLECULE
*****
 27 29 0 0 0
SMALL
GASTEIGER

@<TRIPOS>ATOM
      1 C          61.0903   86.1942    8.7438 C.ar    1  UNL1        0.0304
      2 C          61.9801   85.6771    7.6525 C.ar    1  UNL1        0.0972
      3 N          63.1358   84.7818    7.9882 N.ar    1  UNL1       -0.2410
      4 C          63.4019   84.4037    9.4152 C.ar    1  UNL1        0.1179
      5 C          62.5122   84.9208   10.5065 C.ar    1  UNL1        0.1017
      6 C          61.3563   85.8161   10.1708 C.ar    1  UNL1        0.0205
      7 N          62.7782   84.5427   11.9335 N.ar    1  UNL1       -0.2282
      8 N          63.0507   85.4934   13.0613 N.ar    1  UNL1       -0.1611
      9 C          63.2593   84.6857   14.3080 C.ar    1  UNL1        0.1739
     10 C          63.1157   83.2360   13.9507 C.ar    1  UNL1        0.0411
     11 C          63.2173   81.9850   14.7720 C.ar    1  UNL1        0.0030
     12 C          63.0216   80.6456   14.1257 C.ar    1  UNL1        0.0001
     13 C          62.7242   80.5572   12.6582 C.ar    1  UNL1        0.0015
     14 C          62.6226   81.8083   11.8368 C.ar    1  UNL1        0.0192
     15 C          62.8184   83.1476   12.4831 C.ar    1  UNL1        0.0843
     16 C          63.5590   85.2319   15.6725 C.3     1  UNL1        0.4365
     17 F          63.8587   85.7781   17.0371 F       1  UNL1       -0.1643
     18 F          64.9280   85.6349   15.2106 F       1  UNL1       -0.1643
     19 F          62.1900   84.8290   16.1344 F       1  UNL1       -0.1643
     20 C          58.7788   87.9848    8.0726 C.3     1  UNL1        0.0428
     21 C          59.9346   87.0895    8.4082 C.3     1  UNL1        0.1960
     22 O          59.4675   86.1015    7.3807 O.3     1  UNL1       -0.3751
     23 H          60.0715   85.3426    7.3638 H       1  UNL1        0.2110
     24 C          60.4017   88.0776    9.4357 C.3     1  UNL1        0.4231
     25 F          60.8686   89.0656   10.4631 F       1  UNL1       -0.1673
     26 F          61.7316   88.5386    8.9176 F       1  UNL1       -0.1673
     27 F          59.1473   87.8487   10.2259 F       1  UNL1       -0.1673
@<TRIPOS>BOND
     1    21    20    1
     2    21    22    1
     3    21     1    1
     4     1     2   ar
     5     2     3   ar
     6     3     4   ar
     7     4     5   ar
     8     5     7    1
     9     7     8   ar
    10     8     9   ar
    11     9    16    1
    12    16    17    1
    13    16    18    1
    14    16    19    1
    15     9    10   ar
    16    10    11   ar
    17    11    12   ar
    18    12    13   ar
    19    13    14   ar
    20    14    15   ar
    21     5     6   ar
    22    21    24    1
    23    24    25    1
    24    24    26    1
    25    24    27    1
    26     6     1   ar
    27    15     7   ar
    28    15    10   ar
    29    22    23    1
@<TRIPOS>MOLECULE
*****
 27 29 0 0 0
SMALL
GASTEIGER

@<TRIPOS>ATOM
      1 C          62.8031   89.7898   11.6967 C.ar    1  UNL1        0.0304
      2 C          61.4897   90.0905   11.0373 C.ar    1  UNL1        0.0972
      3 N          60.5932   88.9682   10.6052 N.ar    1  UNL1       -0.2410
      4 C          61.0100   87.5453   10.8325 C.ar    1  UNL1        0.1179
      5 C          62.3233   87.2446   11.4918 C.ar    1  UNL1        0.1017
      6 C          63.2199   88.3669   11.9239 C.ar    1  UNL1        0.0205
      7 N          62.7400   85.8217   11.7190 N.ar    1  UNL1       -0.2282
      8 N          62.6634   84.7095   10.7155 N.ar    1  UNL1       -0.1611
      9 C          63.1826   83.4617   11.3660 C.ar    1  UNL1        0.1739
     10 C          63.5802   83.8026   12.7716 C.ar    1  UNL1        0.0411
     11 C          64.1560   82.9734   13.8810 C.ar    1  UNL1        0.0030
     12 C          64.4582   83.6027   15.2085 C.ar    1  UNL1        0.0001
     13 C          64.1847   85.0613   15.4267 C.ar    1  UNL1        0.0015
     14 C          63.6089   85.8906   14.3174 C.ar    1  UNL1        0.0192
     15 C          63.3067   85.2612   12.9898 C.ar    1  UNL1        0.0843
     16 C          63.2861   82.1101   10.7237 C.3     1  UNL1        0.4365
     17 F          63.3897   80.7585   10.0813 F       1  UNL1       -0.1643
     18 F          64.3497   82.6294    9.8022 F       1  UNL1       -0.1643
     19 F          62.2226   81.5908   11.6451 F       1  UNL1       -0.1643
     20 C          64.5963   92.0342   12.5611 C.3     1  UNL1        0.0428
     21 C          63.6997   90.9120   12.1289 C.3     1  UNL1        0.1960
     22 O          63.6410   91.4914   10.7465 O.3     1  UNL1       -0.3751
     23 H          63.0817   90.9321   10.1850 H       1  UNL1        0.2110
     24 C          63.7583   90.3327   13.5113 C.3     1  UNL1        0.4231
     25 F          63.8171   89.7533   14.8936 F       1  UNL1       -0.1673
     26 F          62.3185   90.1478   13.8888 F       1  UNL1       -0.1673
     27 F          65.2570   90.3787   13.4669 F       1  UNL1       -0.1673
@<TRIPOS>BOND
     1    21    20    1
     2    21    22    1
     3    21     1    1
     4     1     2   ar
     5     2     3   ar
     6     3     4   ar
     7     4     5   ar
     8     5     7    1
     9     7     8   ar
    10     8     9   ar
    11     9    16    1
    12    16    17    1
    13    16    18    1
    14    16    19    1
    15     9    10   ar
    16    10    11   ar
    17    11    12   ar
    18    12    13   ar
    19    13    14   ar
    20    14    15   ar
    21     5     6   ar
    22    21    24    1
    23    24    25    1
    24    24    26    1
    25    24    27    1
    26     6     1   ar
    27    15     7   ar
    28    15    10   ar
    29    22    23    1
@<TRIPOS>MOLECULE
*****
 27 29 0 0 0
SMALL
GASTEIGER

@<TRIPOS>ATOM
      1 C          63.7174   83.8234   12.7248 C.ar    1  UNL1        0.0304
      2 C          64.3465   83.0334   11.6157 C.ar    1  UNL1        0.0972
      3 N          64.0670   83.3933   10.1866 N.ar    1  UNL1       -0.2410
      4 C          63.1583   84.5430    9.8666 C.ar    1  UNL1        0.1179
      5 C          62.5291   85.3329   10.9756 C.ar    1  UNL1        0.1017
      6 C          62.8087   84.9731   12.4048 C.ar    1  UNL1        0.0205
      7 N          61.6204   86.4826   10.6557 N.ar    1  UNL1       -0.2282
      8 N          61.3329   87.6539   11.5475 N.ar    1  UNL1       -0.1611
      9 C          60.3745   88.5581   10.8306 C.ar    1  UNL1        0.1739
     10 C          60.0696   87.9456    9.4958 C.ar    1  UNL1        0.0411
     11 C          59.1904   88.3902    8.3648 C.ar    1  UNL1        0.0030
     12 C          59.0811   87.5520    7.1256 C.ar    1  UNL1        0.0001
     13 C          59.8512   86.2693    7.0175 C.ar    1  UNL1        0.0015
     14 C          60.7304   85.8247    8.1485 C.ar    1  UNL1        0.0192
     15 C          60.8397   86.6629    9.3876 C.ar    1  UNL1        0.0843
     16 C          59.8185   89.8482   11.3564 C.3     1  UNL1        0.4365
     17 F          59.2626   91.1385   11.8820 F       1  UNL1       -0.1643
     18 F          60.6554   90.6101   10.3719 F       1  UNL1       -0.1643
     19 F          58.9817   89.0865   12.3408 F       1  UNL1       -0.1643
     20 C          64.2762   83.1038   15.5831 C.3     1  UNL1        0.0428
     21 C          63.9969   83.4636   14.1540 C.3     1  UNL1        0.1960
     22 O          65.3086   84.1873   14.0797 O.3     1  UNL1       -0.3751
     23 H          65.4210   84.5626   13.1924 H       1  UNL1        0.2110
     24 C          62.6850   82.7399   14.2282 C.3     1  UNL1        0.4231
     25 F          61.3732   82.0163   14.3026 F       1  UNL1       -0.1673
     26 F          62.9285   81.4684   13.4707 F       1  UNL1       -0.1673
     27 F          62.1069   83.8700   15.0276 F       1  UNL1       -0.1673
@<TRIPOS>BOND
     1    21    20    1
     2    21    22    1
     3    21     1    1
     4     1     2   ar
     5     2     3   ar
     6     3     4   ar
     7     4     5   ar
     8     5     7    1
     9     7     8   ar
    10     8     9   ar
    11     9    16    1
    12    16    17    1
    13    16    18    1
    14    16    19    1
    15     9    10   ar
    16    10    11   ar
    17    11    12   ar
    18    12    13   ar
    19    13    14   ar
    20    14    15   ar
    21     5     6   ar
    22    21    24    1
    23    24    25    1
    24    24    26    1
    25    24    27    1
    26     6     1   ar
    27    15     7   ar
    28    15    10   ar
    29    22    23    1
