@<TRIPOS>MOLECULE
*****
 51 55 0 0 0
SMALL
GASTEIGER

@<TRIPOS>ATOM
      1 N          60.9571   88.8856    8.9386 N.am    1  UNL1       -0.2954
      2 C          60.8507   88.6238   10.4118 C.2     1  UNL1        0.2390
      3 O          59.6791   87.8609   10.9552 O.2     1  UNL1       -0.2736
      4 H          61.7260   89.3863    8.5819 H       1  UNL1        0.1499
      5 C          61.9158   89.1251   11.3414 C.3     1  UNL1        0.1568
      6 C          62.2230   90.5634   11.6366 C.3     1  UNL1        0.0442
      7 C          63.3578   90.6032   12.6168 C.3     1  UNL1        0.0738
      8 C          63.7519   89.1896   12.9273 C.3     1  UNL1        0.1120
      9 N          62.8607   88.2761   12.1391 N.3     1  UNL1       -0.1467
     10 S          62.9065   86.7768   12.1472 S.O2    1  UNL1        0.0638
     11 O          62.3573   86.7526   10.7515 O.2     1  UNL1       -0.1528
     12 O          63.4556   86.8011   13.5428 O.2     1  UNL1       -0.1528
     13 C          62.9521   85.2776   12.1552 C.ar    1  UNL1        0.1239
     14 C          62.4709   84.5190   13.3565 C.ar    1  UNL1        0.0314
     15 C          62.5166   83.0198   13.3646 C.ar    1  UNL1        0.0598
     16 CL         62.0354   82.2612   14.5659 Cl      1  UNL1       -0.0822
     17 C          63.0434   82.2790   12.1714 C.ar    1  UNL1        0.0229
     18 C          63.5246   83.0375   10.9701 C.ar    1  UNL1        0.0598
     19 CL         64.0515   82.2968    9.7770 Cl      1  UNL1       -0.0822
     20 C          63.4790   84.5368   10.9620 C.ar    1  UNL1        0.0314
     21 N          63.9878   91.8396   13.1863 N.3     1  UNL1       -0.2984
     22 H          63.5298   92.0185   14.0800 H       1  UNL1        0.1232
     23 C          65.4654   91.8790   13.4414 C.3     1  UNL1        0.0540
     24 C          66.6558   92.4121   12.7006 C.3     1  UNL1        0.0158
     25 C          67.5550   91.9348   13.8022 C.3     1  UNL1        0.0027
     26 C          66.3646   91.4017   14.5431 C.3     1  UNL1        0.0158
     27 C          59.8920   88.3843    8.0089 C.3     1  UNL1        0.1758
     28 C          59.8174   86.9247    7.6713 C.2     1  UNL1        0.3353
     29 O          58.4882   86.2847    7.3998 O.2     1  UNL1       -0.2483
     30 O          61.0719   86.1051    7.6051 O.3     1  UNL1       -0.4474
     31 C          62.3889   84.4875    6.0563 C.3     1  UNL1        0.0513
     32 C          61.1174   84.8710    6.7536 C.3     1  UNL1        0.2086
     33 C          58.9015   89.3426    7.4169 C.3     1  UNL1        0.0574
     34 C          59.2985   90.2132    6.2616 C.ar    1  UNL1       -0.0199
     35 C          58.2563   90.9965    5.5199 C.ar    1  UNL1       -0.0029
     36 C          58.6533   91.8670    4.3647 C.ar    1  UNL1        0.0144
     37 C          60.0926   91.9541    3.9511 C.ar    1  UNL1        0.0505
     38 C          61.1348   91.1708    4.6928 C.ar    1  UNL1        0.0144
     39 C          60.7378   90.3003    5.8480 C.ar    1  UNL1       -0.0029
     40 N          60.4896   92.8247    2.7958 N.am    1  UNL1       -0.2803
     41 C          61.7362   92.5186    2.0198 C.2     1  UNL1        0.2512
     42 O          62.5858   91.3421    2.3990 O.2     1  UNL1       -0.2698
     43 H          59.9319   93.5969    2.5469 H       1  UNL1        0.1552
     44 C          62.1332   93.3892    0.8645 C.ar    1  UNL1        0.0778
     45 C          61.3753   93.3123   -0.4277 C.ar    1  UNL1        0.0820
     46 CL         60.2205   92.3649   -0.5646 Cl      1  UNL1       -0.0804
     47 C          61.7723   94.1828   -1.5829 C.ar    1  UNL1        0.1104
     48 N          62.9272   95.1302   -1.4459 N.ar    1  UNL1       -0.2405
     49 C          63.6850   95.2071   -0.1538 C.ar    1  UNL1        0.1104
     50 C          63.2880   94.3366    1.0014 C.ar    1  UNL1        0.0820
     51 CL         64.0459   94.4135    2.2937 Cl      1  UNL1       -0.0804
@<TRIPOS>BOND
     1    31    32    1
     2    32    30    1
     3    30    28    1
     4    28    29    2
     5    28    27    1
     6    27    33    1
     7    33    34    1
     8    34    35   ar
     9    35    36   ar
    10    36    37   ar
    11    37    40    1
    12    40    41   am
    13    41    42    2
    14    41    44    1
    15    44    45   ar
    16    45    46    1
    17    45    47   ar
    18    47    48   ar
    19    48    49   ar
    20    49    50   ar
    21    50    51    1
    22    37    38   ar
    23    38    39   ar
    24    27     1    1
    25     1     2   am
    26     2     3    2
    27     5     2    1
    28     5     6    1
    29     6     7    1
    30     7    21    1
    31    21    23    1
    32    23    24    1
    33    24    25    1
    34    25    26    1
    35     7     8    1
    36     8     9    1
    37     9    10    1
    38    10    11    2
    39    10    12    2
    40    10    13    1
    41    13    14   ar
    42    14    15   ar
    43    15    16    1
    44    15    17   ar
    45    17    18   ar
    46    18    19    1
    47    18    20   ar
    48    39    34   ar
    49     9     5    1
    50    20    13   ar
    51    50    44   ar
    52    26    23    1
    53    40    43    1
    54     1     4    1
    55    21    22    1
@<TRIPOS>MOLECULE
*****
 51 55 0 0 0
SMALL
GASTEIGER

@<TRIPOS>ATOM
      1 N          60.9648   88.8929    8.9393 N.am    1  UNL1       -0.2954
      2 C          60.8593   88.6122   10.4091 C.2     1  UNL1        0.2390
      3 O          59.6949   87.8308   10.9416 O.2     1  UNL1       -0.2736
      4 H          61.7290   89.4058    8.5897 H       1  UNL1        0.1499
      5 C          61.9181   89.1129   11.3462 C.3     1  UNL1        0.1568
      6 C          62.2226   90.5511   11.6449 C.3     1  UNL1        0.0442
      7 C          63.3511   90.5903   12.6325 C.3     1  UNL1        0.0738
      8 C          63.7439   89.1766   12.9441 C.3     1  UNL1        0.1120
      9 N          62.8582   88.2635   12.1491 N.3     1  UNL1       -0.1467
     10 S          62.9046   86.7643   12.1558 S.O2    1  UNL1        0.0638
     11 O          62.3495   86.7409   10.7625 O.2     1  UNL1       -0.1528
     12 O          63.4597   86.7877   13.5490 O.2     1  UNL1       -0.1528
     13 C          62.9510   85.2651   12.1625 C.ar    1  UNL1        0.1239
     14 C          63.4847   84.5259   10.9712 C.ar    1  UNL1        0.0314
     15 C          63.5311   83.0268   10.9778 C.ar    1  UNL1        0.0598
     16 CL         64.0648   82.2876    9.7865 Cl      1  UNL1       -0.0822
     17 C          63.0438   82.2665   12.1755 C.ar    1  UNL1        0.0229
     18 C          62.5101   83.0055   13.3667 C.ar    1  UNL1        0.0598
     19 CL         62.0228   82.2453   14.5644 Cl      1  UNL1       -0.0822
     20 C          62.4637   84.5048   13.3602 C.ar    1  UNL1        0.0314
     21 N          63.9767   91.8264   13.2075 N.3     1  UNL1       -0.2984
     22 H          63.5282   91.9916   14.1086 H       1  UNL1        0.1232
     23 C          65.4570   91.8768   13.4449 C.3     1  UNL1        0.0540
     24 C          66.3718   91.4159   14.5407 C.3     1  UNL1        0.0158
     25 C          67.5503   91.9481   13.7805 C.3     1  UNL1        0.0027
     26 C          66.6356   92.4089   12.6847 C.3     1  UNL1        0.0158
     27 C          59.9060   88.3922    8.0022 C.3     1  UNL1        0.1758
     28 C          59.8419   86.9348    7.6529 C.2     1  UNL1        0.3353
     29 O          58.5145   86.2790    7.4121 O.2     1  UNL1       -0.2483
     30 O          61.1051   86.1333    7.5443 O.3     1  UNL1       -0.4474
     31 C          62.3285   84.4374    6.0025 C.3     1  UNL1        0.0513
     32 C          61.1112   84.8430    6.7796 C.3     1  UNL1        0.2086
     33 C          58.9114   89.3488    7.4144 C.3     1  UNL1        0.0574
     34 C          59.3031   90.2230    6.2600 C.ar    1  UNL1       -0.0199
     35 C          60.7387   90.3021    5.8326 C.ar    1  UNL1       -0.0029
     36 C          61.1304   91.1763    4.6783 C.ar    1  UNL1        0.0144
     37 C          60.0866   91.9712    3.9515 C.ar    1  UNL1        0.0505
     38 C          58.6509   91.8920    4.3789 C.ar    1  UNL1        0.0144
     39 C          58.2592   91.0179    5.5332 C.ar    1  UNL1       -0.0029
     40 N          60.4783   92.8453    2.7971 N.am    1  UNL1       -0.2803
     41 C          61.7077   92.5271    1.9988 C.2     1  UNL1        0.2512
     42 O          62.5454   91.3348    2.3548 O.2     1  UNL1       -0.2698
     43 H          59.9286   93.6279    2.5634 H       1  UNL1        0.1552
     44 C          62.0995   93.4013    0.8444 C.ar    1  UNL1        0.0778
     45 C          63.2538   94.3495    0.9796 C.ar    1  UNL1        0.0820
     46 CL         64.0165   94.4236    2.2692 Cl      1  UNL1       -0.0804
     47 C          63.6456   95.2236   -0.1747 C.ar    1  UNL1        0.1104
     48 N          62.8829   95.1494   -1.4642 N.ar    1  UNL1       -0.2405
     49 C          61.7285   94.2013   -1.5994 C.ar    1  UNL1        0.1104
     50 C          61.3368   93.3272   -0.4451 C.ar    1  UNL1        0.0820
     51 CL         60.1824   92.3789   -0.5803 Cl      1  UNL1       -0.0804
@<TRIPOS>BOND
     1    31    32    1
     2    32    30    1
     3    30    28    1
     4    28    29    2
     5    28    27    1
     6    27    33    1
     7    33    34    1
     8    34    35   ar
     9    35    36   ar
    10    36    37   ar
    11    37    40    1
    12    40    41   am
    13    41    42    2
    14    41    44    1
    15    44    45   ar
    16    45    46    1
    17    45    47   ar
    18    47    48   ar
    19    48    49   ar
    20    49    50   ar
    21    50    51    1
    22    37    38   ar
    23    38    39   ar
    24    27     1    1
    25     1     2   am
    26     2     3    2
    27     5     2    1
    28     5     6    1
    29     6     7    1
    30     7    21    1
    31    21    23    1
    32    23    24    1
    33    24    25    1
    34    25    26    1
    35     7     8    1
    36     8     9    1
    37     9    10    1
    38    10    11    2
    39    10    12    2
    40    10    13    1
    41    13    14   ar
    42    14    15   ar
    43    15    16    1
    44    15    17   ar
    45    17    18   ar
    46    18    19    1
    47    18    20   ar
    48    39    34   ar
    49     9     5    1
    50    20    13   ar
    51    50    44   ar
    52    26    23    1
    53    40    43    1
    54     1     4    1
    55    21    22    1
@<TRIPOS>MOLECULE
*****
 51 55 0 0 0
SMALL
GASTEIGER

@<TRIPOS>ATOM
      1 N          61.5829   89.3274    9.0831 N.am    1  UNL1       -0.2954
      2 C          61.8269   89.5940   10.5390 C.2     1  UNL1        0.2390
      3 O          60.9935   88.9039   11.5778 O.2     1  UNL1       -0.2736
      4 H          62.1299   89.7803    8.4013 H       1  UNL1        0.1499
      5 C          62.9044   90.5506   10.9559 C.3     1  UNL1        0.1568
      6 C          63.3023   91.8014   10.2298 C.3     1  UNL1        0.0442
      7 C          64.4170   92.4483   10.9974 C.3     1  UNL1        0.0738
      8 C          64.7080   91.5972   12.1978 C.3     1  UNL1        0.1120
      9 N          63.7732   90.4245   12.1722 N.3     1  UNL1       -0.1467
     10 S          63.7170   89.3195   13.1851 S.O2    1  UNL1        0.0638
     11 O          63.7407   90.3324   14.2912 O.2     1  UNL1       -0.1528
     12 O          63.6933   88.3067   12.0790 O.2     1  UNL1       -0.1528
     13 C          63.6609   88.2146   14.1980 C.ar    1  UNL1        0.1239
     14 C          63.3149   88.5222   15.6249 C.ar    1  UNL1        0.0314
     15 C          63.2588   87.4174   16.6378 C.ar    1  UNL1        0.0598
     16 CL         62.9128   87.7250   18.0647 Cl      1  UNL1       -0.0822
     17 C          63.5484   86.0050   16.2241 C.ar    1  UNL1        0.0229
     18 C          63.8943   85.6975   14.7973 C.ar    1  UNL1        0.0598
     19 CL         64.1840   84.2851   14.3836 Cl      1  UNL1       -0.0822
     20 C          63.9505   86.8023   13.7843 C.ar    1  UNL1        0.0314
     21 N          65.1177   93.7224   10.6291 N.3     1  UNL1       -0.2984
     22 H          65.2346   94.2541   11.4916 H       1  UNL1        0.1232
     23 C          66.4615   93.6742    9.9645 C.3     1  UNL1        0.0540
     24 C          67.5765   92.6729    9.8975 C.3     1  UNL1        0.0158
     25 C          68.3620   93.6061    9.0246 C.3     1  UNL1        0.0027
     26 C          67.2472   94.6074    9.0916 C.3     1  UNL1        0.0158
     27 C          60.5054   88.3708    8.6661 C.3     1  UNL1        0.1758
     28 C          60.7386   86.8918    8.7585 C.2     1  UNL1        0.3353
     29 O          60.6092   86.0343    7.5346 O.2     1  UNL1       -0.2483
     30 O          61.1012   86.2705   10.0747 O.3     1  UNL1       -0.4474
     31 C          62.5339   84.4774   11.2922 C.3     1  UNL1        0.0513
     32 C          62.3884   85.5139   10.2176 C.3     1  UNL1        0.2086
     33 C          59.1948   88.8930    8.1568 C.3     1  UNL1        0.0574
     34 C          59.1571   89.7584    6.9321 C.ar    1  UNL1       -0.0199
     35 C          60.4325   90.1232    6.2321 C.ar    1  UNL1       -0.0029
     36 C          60.3948   90.9885    5.0074 C.ar    1  UNL1        0.0144
     37 C          59.0817   91.4890    4.4828 C.ar    1  UNL1        0.0505
     38 C          57.8063   91.1241    5.1829 C.ar    1  UNL1        0.0144
     39 C          57.8440   90.2588    6.4075 C.ar    1  UNL1       -0.0029
     40 N          59.0440   92.3543    3.2581 N.am    1  UNL1       -0.2803
     41 C          60.3237   92.7915    2.6091 C.2     1  UNL1        0.2512
     42 O          61.6411   92.3634    3.1847 O.2     1  UNL1       -0.2698
     43 H          58.1794   92.6353    2.8803 H       1  UNL1        0.1552
     44 C          60.2860   93.6569    1.3844 C.ar    1  UNL1        0.0778
     45 C          60.1793   95.1467    1.5217 C.ar    1  UNL1        0.0820
     46 CL         60.1102   95.7713    2.8838 Cl      1  UNL1       -0.0804
     47 C          60.1416   96.0120    0.2971 C.ar    1  UNL1        0.1104
     48 N          60.2107   95.3874   -1.0650 N.ar    1  UNL1       -0.2405
     49 C          60.3175   93.8975   -1.2023 C.ar    1  UNL1        0.1104
     50 C          60.3552   93.0323    0.0223 C.ar    1  UNL1        0.0820
     51 CL         60.4619   91.5423   -0.1150 Cl      1  UNL1       -0.0804
@<TRIPOS>BOND
     1    31    32    1
     2    32    30    1
     3    30    28    1
     4    28    29    2
     5    28    27    1
     6    27    33    1
     7    33    34    1
     8    34    35   ar
     9    35    36   ar
    10    36    37   ar
    11    37    40    1
    12    40    41   am
    13    41    42    2
    14    41    44    1
    15    44    45   ar
    16    45    46    1
    17    45    47   ar
    18    47    48   ar
    19    48    49   ar
    20    49    50   ar
    21    50    51    1
    22    37    38   ar
    23    38    39   ar
    24    27     1    1
    25     1     2   am
    26     2     3    2
    27     5     2    1
    28     5     6    1
    29     6     7    1
    30     7    21    1
    31    21    23    1
    32    23    24    1
    33    24    25    1
    34    25    26    1
    35     7     8    1
    36     8     9    1
    37     9    10    1
    38    10    11    2
    39    10    12    2
    40    10    13    1
    41    13    14   ar
    42    14    15   ar
    43    15    16    1
    44    15    17   ar
    45    17    18   ar
    46    18    19    1
    47    18    20   ar
    48    39    34   ar
    49     9     5    1
    50    20    13   ar
    51    50    44   ar
    52    26    23    1
    53    40    43    1
    54     1     4    1
    55    21    22    1
@<TRIPOS>MOLECULE
*****
 51 55 0 0 0
SMALL
GASTEIGER

@<TRIPOS>ATOM
      1 N          61.3434   87.7978    9.4518 N.am    1  UNL1       -0.2954
      2 C          61.1518   87.2936   10.8516 C.2     1  UNL1        0.2390
      3 O          60.0976   87.9000   11.7295 O.2     1  UNL1       -0.2736
      4 H          62.0353   87.3998    8.8756 H       1  UNL1        0.1499
      5 C          62.0146   86.1829   11.3733 C.3     1  UNL1        0.1568
      6 C          61.9611   84.7475   10.9409 C.3     1  UNL1        0.0442
      7 C          62.9957   83.9902   11.7194 C.3     1  UNL1        0.0738
      8 C          63.6886   84.9575   12.6328 C.3     1  UNL1        0.1120
      9 N          63.0822   86.3126   12.4189 N.3     1  UNL1       -0.1467
     10 S          63.4746   87.5758   13.1263 S.O2    1  UNL1        0.0638
     11 O          63.1942   88.3611   11.8795 O.2     1  UNL1       -0.1528
     12 O          63.7550   86.7904   14.3731 O.2     1  UNL1       -0.1528
     13 C          63.8670   88.8389   13.8337 C.ar    1  UNL1        0.1239
     14 C          64.7018   89.8657   13.1274 C.ar    1  UNL1        0.0314
     15 C          65.0942   91.1289   13.8346 C.ar    1  UNL1        0.0598
     16 CL         65.9291   92.1557   13.1283 Cl      1  UNL1       -0.0822
     17 C          64.6518   91.3654   15.2482 C.ar    1  UNL1        0.0229
     18 C          63.8170   90.3387   15.9546 C.ar    1  UNL1        0.0598
     19 CL         63.3747   90.5752   17.3682 Cl      1  UNL1       -0.0822
     20 C          63.4246   89.0754   15.2473 C.ar    1  UNL1        0.0314
     21 N          63.2864   82.5231   11.6046 N.3     1  UNL1       -0.2984
     22 H          64.2966   82.4151   11.6953 H       1  UNL1        0.1232
     23 C          62.6596   81.5569   12.5656 C.3     1  UNL1        0.0540
     24 C          62.5625   80.0627   12.6556 C.3     1  UNL1        0.0158
     25 C          61.7732   80.1905   13.9247 C.3     1  UNL1        0.0027
     26 C          61.8702   81.6847   13.8347 C.3     1  UNL1        0.0158
     27 C          60.4806   88.9084    8.9301 C.3     1  UNL1        0.1758
     28 C          60.5807   90.2802    9.5287 C.2     1  UNL1        0.3353
     29 O          59.4296   90.8443   10.3078 O.2     1  UNL1       -0.2483
     30 O          61.8317   91.0879    9.3482 O.3     1  UNL1       -0.4474
     31 C          64.1073   91.9461   10.2621 C.3     1  UNL1        0.0513
     32 C          62.8610   91.1301   10.4384 C.3     1  UNL1        0.2086
     33 C          59.5179   88.6473    7.8099 C.3     1  UNL1        0.0574
     34 C          59.3974   89.6274    6.6807 C.ar    1  UNL1       -0.0199
     35 C          60.6256   90.0879    5.9530 C.ar    1  UNL1       -0.0029
     36 C          60.5050   91.0679    4.8239 C.ar    1  UNL1        0.0144
     37 C          59.1564   91.5874    4.4225 C.ar    1  UNL1        0.0505
     38 C          57.9282   91.1270    5.1501 C.ar    1  UNL1        0.0144
     39 C          58.0487   90.1469    6.2793 C.ar    1  UNL1       -0.0029
     40 N          59.0359   92.5675    3.2933 N.am    1  UNL1       -0.2803
     41 C          60.2509   92.9551    2.5037 C.2     1  UNL1        0.2512
     42 O          61.5864   92.3626    2.8432 O.2     1  UNL1       -0.2698
     43 H          58.1593   92.9564    3.0704 H       1  UNL1        0.1552
     44 C          60.1304   93.9352    1.3745 C.ar    1  UNL1        0.0778
     45 C          60.0874   95.4070    1.6603 C.ar    1  UNL1        0.0820
     46 CL         60.1649   95.8989    3.0752 Cl      1  UNL1       -0.0804
     47 C          59.9669   96.3870    0.5311 C.ar    1  UNL1        0.1104
     48 N          59.8894   95.8951   -0.8838 N.ar    1  UNL1       -0.2405
     49 C          59.9324   94.4233   -1.1696 C.ar    1  UNL1        0.1104
     50 C          60.0529   93.4433   -0.0404 C.ar    1  UNL1        0.0820
     51 CL         60.0959   91.9713   -0.3262 Cl      1  UNL1       -0.0804
@<TRIPOS>BOND
     1    31    32    1
     2    32    30    1
     3    30    28    1
     4    28    29    2
     5    28    27    1
     6    27    33    1
     7    33    34    1
     8    34    35   ar
     9    35    36   ar
    10    36    37   ar
    11    37    40    1
    12    40    41   am
    13    41    42    2
    14    41    44    1
    15    44    45   ar
    16    45    46    1
    17    45    47   ar
    18    47    48   ar
    19    48    49   ar
    20    49    50   ar
    21    50    51    1
    22    37    38   ar
    23    38    39   ar
    24    27     1    1
    25     1     2   am
    26     2     3    2
    27     5     2    1
    28     5     6    1
    29     6     7    1
    30     7    21    1
    31    21    23    1
    32    23    24    1
    33    24    25    1
    34    25    26    1
    35     7     8    1
    36     8     9    1
    37     9    10    1
    38    10    11    2
    39    10    12    2
    40    10    13    1
    41    13    14   ar
    42    14    15   ar
    43    15    16    1
    44    15    17   ar
    45    17    18   ar
    46    18    19    1
    47    18    20   ar
    48    39    34   ar
    49     9     5    1
    50    20    13   ar
    51    50    44   ar
    52    26    23    1
    53    40    43    1
    54     1     4    1
    55    21    22    1
@<TRIPOS>MOLECULE
*****
 51 55 0 0 0
SMALL
GASTEIGER

@<TRIPOS>ATOM
      1 N          61.3522   87.8092    9.4359 N.am    1  UNL1       -0.2954
      2 C          61.1457   87.2970   10.8306 C.2     1  UNL1        0.2390
      3 O          60.0822   87.8986   11.7007 O.2     1  UNL1       -0.2736
      4 H          62.0501   87.4144    8.8648 H       1  UNL1        0.1499
      5 C          62.0027   86.1833   11.3551 C.3     1  UNL1        0.1568
      6 C          61.9463   84.7483   10.9217 C.3     1  UNL1        0.0442
      7 C          62.9753   83.9872   11.7039 C.3     1  UNL1        0.0738
      8 C          63.6676   84.9516   12.6207 C.3     1  UNL1        0.1120
      9 N          63.0665   86.3089   12.4051 N.3     1  UNL1       -0.1467
     10 S          63.4601   87.5703   13.1150 S.O2    1  UNL1        0.0638
     11 O          63.1484   88.3625   11.8799 O.2     1  UNL1       -0.1528
     12 O          63.7718   86.7782   14.3499 O.2     1  UNL1       -0.1528
     13 C          63.8537   88.8318   13.8247 C.ar    1  UNL1        0.1239
     14 C          63.4313   89.0554   15.2466 C.ar    1  UNL1        0.0314
     15 C          63.8249   90.3167   15.9563 C.ar    1  UNL1        0.0598
     16 CL         63.4025   90.5403   17.3782 Cl      1  UNL1       -0.0822
     17 C          64.6408   91.3547   15.2443 C.ar    1  UNL1        0.0229
     18 C          65.0632   91.1312   13.8225 C.ar    1  UNL1        0.0598
     19 CL         65.8791   92.1691   13.1105 Cl      1  UNL1       -0.0822
     20 C          64.6696   89.8697   13.1127 C.ar    1  UNL1        0.0314
     21 N          63.2617   82.5192   11.5893 N.3     1  UNL1       -0.2984
     22 H          64.2727   82.4094   11.6685 H       1  UNL1        0.1232
     23 C          62.6443   81.5567   12.5601 C.3     1  UNL1        0.0540
     24 C          61.8424   81.6895   13.8208 C.3     1  UNL1        0.0158
     25 C          61.7711   80.1955   13.9328 C.3     1  UNL1        0.0027
     26 C          62.5730   80.0625   12.6721 C.3     1  UNL1        0.0158
     27 C          60.4951   88.9230    8.9114 C.3     1  UNL1        0.1758
     28 C          60.6041   90.2963    9.5048 C.2     1  UNL1        0.3353
     29 O          59.4536   90.8742   10.2746 O.2     1  UNL1       -0.2483
     30 O          61.8634   91.0918    9.3284 O.3     1  UNL1       -0.4474
     31 C          64.1408   91.9305   10.2559 C.3     1  UNL1        0.0513
     32 C          62.8448   91.2027   10.4574 C.3     1  UNL1        0.2086
     33 C          59.5292   88.6634    7.7936 C.3     1  UNL1        0.0574
     34 C          59.4113   89.6411    6.6620 C.ar    1  UNL1       -0.0199
     35 C          60.6400   90.0925    5.9297 C.ar    1  UNL1       -0.0029
     36 C          60.5220   91.0701    4.7983 C.ar    1  UNL1        0.0144
     37 C          59.1753   91.5963    4.3991 C.ar    1  UNL1        0.0505
     38 C          57.9465   91.1449    5.1314 C.ar    1  UNL1        0.0144
     39 C          58.0645   90.1673    6.2629 C.ar    1  UNL1       -0.0029
     40 N          59.0573   92.5740    3.2675 N.am    1  UNL1       -0.2803
     41 C          60.2791   92.9838    2.5000 C.2     1  UNL1        0.2512
     42 O          61.6190   92.4160    2.8640 O.2     1  UNL1       -0.2698
     43 H          58.1780   92.9467    3.0287 H       1  UNL1        0.1552
     44 C          60.1612   93.9615    1.3685 C.ar    1  UNL1        0.0778
     45 C          60.1094   93.4678   -0.0470 C.ar    1  UNL1        0.0820
     46 CL         60.1755   91.9964   -0.3309 Cl      1  UNL1       -0.0804
     47 C          59.9914   94.4454   -1.1784 C.ar    1  UNL1        0.1104
     48 N          59.9253   95.9168   -0.8944 N.ar    1  UNL1       -0.2405
     49 C          59.9771   96.4105    0.5210 C.ar    1  UNL1        0.1104
     50 C          60.0951   95.4329    1.6525 C.ar    1  UNL1        0.0820
     51 CL         60.1469   95.9266    3.0680 Cl      1  UNL1       -0.0804
@<TRIPOS>BOND
     1    31    32    1
     2    32    30    1
     3    30    28    1
     4    28    29    2
     5    28    27    1
     6    27    33    1
     7    33    34    1
     8    34    35   ar
     9    35    36   ar
    10    36    37   ar
    11    37    40    1
    12    40    41   am
    13    41    42    2
    14    41    44    1
    15    44    45   ar
    16    45    46    1
    17    45    47   ar
    18    47    48   ar
    19    48    49   ar
    20    49    50   ar
    21    50    51    1
    22    37    38   ar
    23    38    39   ar
    24    27     1    1
    25     1     2   am
    26     2     3    2
    27     5     2    1
    28     5     6    1
    29     6     7    1
    30     7    21    1
    31    21    23    1
    32    23    24    1
    33    24    25    1
    34    25    26    1
    35     7     8    1
    36     8     9    1
    37     9    10    1
    38    10    11    2
    39    10    12    2
    40    10    13    1
    41    13    14   ar
    42    14    15   ar
    43    15    16    1
    44    15    17   ar
    45    17    18   ar
    46    18    19    1
    47    18    20   ar
    48    39    34   ar
    49     9     5    1
    50    20    13   ar
    51    50    44   ar
    52    26    23    1
    53    40    43    1
    54     1     4    1
    55    21    22    1
@<TRIPOS>MOLECULE
*****
 51 55 0 0 0
SMALL
GASTEIGER

@<TRIPOS>ATOM
      1 N          61.3499   87.8067    9.4526 N.am    1  UNL1       -0.2954
      2 C          61.1617   87.3101   10.8555 C.2     1  UNL1        0.2390
      3 O          60.1087   87.9204   11.7322 O.2     1  UNL1       -0.2736
      4 H          62.0411   87.4061    8.8772 H       1  UNL1        0.1499
      5 C          62.0265   86.2031   11.3816 C.3     1  UNL1        0.1568
      6 C          61.9753   84.7658   10.9554 C.3     1  UNL1        0.0442
      7 C          63.0115   84.0135   11.7368 C.3     1  UNL1        0.0738
      8 C          63.7031   84.9859   12.6457 C.3     1  UNL1        0.1120
      9 N          63.0943   86.3391   12.4262 N.3     1  UNL1       -0.1467
     10 S          63.4849   87.6059   13.1282 S.O2    1  UNL1        0.0638
     11 O          63.7790   86.8246   14.3744 O.2     1  UNL1       -0.1528
     12 O          63.1908   88.3871   11.8820 O.2     1  UNL1       -0.1528
     13 C          63.8754   88.8726   13.8302 C.ar    1  UNL1        0.1239
     14 C          64.6952   89.9048   13.1141 C.ar    1  UNL1        0.0314
     15 C          65.0858   91.1715   13.8160 C.ar    1  UNL1        0.0598
     16 CL         65.9055   92.2037   13.1000 Cl      1  UNL1       -0.0822
     17 C          64.6567   91.4061   15.2340 C.ar    1  UNL1        0.0229
     18 C          63.8369   90.3740   15.9501 C.ar    1  UNL1        0.0598
     19 CL         63.4078   90.6087   17.3681 Cl      1  UNL1       -0.0822
     20 C          63.4463   89.1073   15.2482 C.ar    1  UNL1        0.0314
     21 N          63.3046   82.5465   11.6281 N.3     1  UNL1       -0.2984
     22 H          64.3142   82.4398   11.7268 H       1  UNL1        0.1232
     23 C          62.6716   81.5822   12.5869 C.3     1  UNL1        0.0540
     24 C          61.9143   81.7105   13.8754 C.3     1  UNL1        0.0158
     25 C          61.7763   80.2184   13.9428 C.3     1  UNL1        0.0027
     26 C          62.5335   80.0900   12.6543 C.3     1  UNL1        0.0158
     27 C          60.4851   88.9136    8.9265 C.3     1  UNL1        0.1758
     28 C          60.5754   90.2855    9.5263 C.2     1  UNL1        0.3353
     29 O          59.4194   90.8417   10.3038 O.2     1  UNL1       -0.2483
     30 O          61.8216   91.1012    9.3487 O.3     1  UNL1       -0.4474
     31 C          64.1032   91.9504   10.2560 C.3     1  UNL1        0.0513
     32 C          62.8519   91.1434   10.4380 C.3     1  UNL1        0.2086
     33 C          59.5301   88.6487    7.8006 C.3     1  UNL1        0.0574
     34 C          59.4102   89.6298    6.6722 C.ar    1  UNL1       -0.0199
     35 C          58.0621   90.1521    6.2726 C.ar    1  UNL1       -0.0029
     36 C          57.9422   91.1331    5.1443 C.ar    1  UNL1        0.0144
     37 C          59.1705   91.5918    4.4156 C.ar    1  UNL1        0.0505
     38 C          60.5186   91.0695    4.8152 C.ar    1  UNL1        0.0144
     39 C          60.6384   90.0885    5.9435 C.ar    1  UNL1       -0.0029
     40 N          59.0506   92.5729    3.2872 N.am    1  UNL1       -0.2803
     41 C          60.2670   92.9657    2.5024 C.2     1  UNL1        0.2512
     42 O          61.6034   92.3774    2.8459 O.2     1  UNL1       -0.2698
     43 H          58.1735   92.9591    3.0618 H       1  UNL1        0.1552
     44 C          60.1471   93.9468    1.3740 C.ar    1  UNL1        0.0778
     45 C          60.0833   93.4568   -0.0423 C.ar    1  UNL1        0.0820
     46 CL         60.1395   91.9858   -0.3302 Cl      1  UNL1       -0.0804
     47 C          59.9634   94.4379   -1.1705 C.ar    1  UNL1        0.1104
     48 N          59.9073   95.9089   -0.8826 N.ar    1  UNL1       -0.2405
     49 C          59.9711   96.3989    0.5337 C.ar    1  UNL1        0.1104
     50 C          60.0910   95.4178    1.6620 C.ar    1  UNL1        0.0820
     51 CL         60.1548   95.9077    3.0783 Cl      1  UNL1       -0.0804
@<TRIPOS>BOND
     1    31    32    1
     2    32    30    1
     3    30    28    1
     4    28    29    2
     5    28    27    1
     6    27    33    1
     7    33    34    1
     8    34    35   ar
     9    35    36   ar
    10    36    37   ar
    11    37    40    1
    12    40    41   am
    13    41    42    2
    14    41    44    1
    15    44    45   ar
    16    45    46    1
    17    45    47   ar
    18    47    48   ar
    19    48    49   ar
    20    49    50   ar
    21    50    51    1
    22    37    38   ar
    23    38    39   ar
    24    27     1    1
    25     1     2   am
    26     2     3    2
    27     5     2    1
    28     5     6    1
    29     6     7    1
    30     7    21    1
    31    21    23    1
    32    23    24    1
    33    24    25    1
    34    25    26    1
    35     7     8    1
    36     8     9    1
    37     9    10    1
    38    10    11    2
    39    10    12    2
    40    10    13    1
    41    13    14   ar
    42    14    15   ar
    43    15    16    1
    44    15    17   ar
    45    17    18   ar
    46    18    19    1
    47    18    20   ar
    48    39    34   ar
    49     9     5    1
    50    20    13   ar
    51    50    44   ar
    52    26    23    1
    53    40    43    1
    54     1     4    1
    55    21    22    1
@<TRIPOS>MOLECULE
*****
 51 55 0 0 0
SMALL
GASTEIGER

@<TRIPOS>ATOM
      1 N          63.4412   90.3819   14.0063 N.am    1  UNL1       -0.2954
      2 C          62.0579   89.9497   13.6191 C.2     1  UNL1        0.2390
      3 O          61.0325   89.6786   14.6797 O.2     1  UNL1       -0.2736
      4 H          64.1142   90.5599   13.3102 H       1  UNL1        0.1499
      5 C          61.7002   89.7885   12.1713 C.3     1  UNL1        0.1568
      6 C          60.5271   89.0244   11.6328 C.3     1  UNL1        0.0442
      7 C          60.5547   89.1268   10.1365 C.3     1  UNL1        0.0738
      8 C          61.7448   89.9542    9.7503 C.3     1  UNL1        0.1120
      9 N          62.4527   90.3632   11.0080 N.3     1  UNL1       -0.1467
     10 S          63.6951   91.1999   11.0881 S.O2    1  UNL1        0.0638
     11 O          64.2238   90.3106   12.1743 O.2     1  UNL1       -0.1528
     12 O          63.1664   92.0890   10.0019 O.2     1  UNL1       -0.1528
     13 C          64.9375   92.0364   11.1683 C.ar    1  UNL1        0.1239
     14 C          65.0194   93.3316   10.4158 C.ar    1  UNL1        0.0314
     15 C          66.2618   94.1682   10.4960 C.ar    1  UNL1        0.0598
     16 CL         66.3437   95.4633    9.7436 Cl      1  UNL1       -0.0822
     17 C          67.4223   93.7099   11.3285 C.ar    1  UNL1        0.0229
     18 C          67.3404   92.4148   12.0809 C.ar    1  UNL1        0.0598
     19 CL         68.5009   91.9565   12.9135 Cl      1  UNL1       -0.0822
     20 C          66.0980   91.5781   12.0008 C.ar    1  UNL1        0.0314
     21 N          59.5657   88.5101    9.1922 N.3     1  UNL1       -0.2984
     22 H          59.3475   89.2178    8.4908 H       1  UNL1        0.1232
     23 C          59.9206   87.2574    8.4475 C.3     1  UNL1        0.0540
     24 C          61.1103   86.3444    8.4137 C.3     1  UNL1        0.0158
     25 C          60.4223   85.4857    7.3943 C.3     1  UNL1        0.0027
     26 C          59.2326   86.3986    7.4280 C.3     1  UNL1        0.0158
     27 C          63.7989   90.5431   15.4541 C.3     1  UNL1        0.1758
     28 C          64.2579   91.8749   15.9694 C.2     1  UNL1        0.3353
     29 O          63.4783   92.5724   17.0445 O.2     1  UNL1       -0.2483
     30 O          65.4966   92.5093   15.4098 O.3     1  UNL1       -0.4474
     31 C          67.8740   93.4910   15.7759 C.3     1  UNL1        0.0513
     32 C          66.6941   92.7195   16.2883 C.3     1  UNL1        0.2086
     33 C          63.6976   89.3725   16.3864 C.3     1  UNL1        0.0574
     34 C          63.6691   87.9767   15.8376 C.ar    1  UNL1       -0.0199
     35 C          64.3047   87.6790   14.5120 C.ar    1  UNL1       -0.0029
     36 C          64.2762   86.2833   13.9633 C.ar    1  UNL1        0.0144
     37 C          63.6120   85.1854   14.7401 C.ar    1  UNL1        0.0505
     38 C          62.9764   85.4831   16.0657 C.ar    1  UNL1        0.0144
     39 C          63.0049   86.8788   16.6144 C.ar    1  UNL1       -0.0029
     40 N          63.5835   83.7896   14.1912 N.am    1  UNL1       -0.2803
     41 C          62.8856   83.5080   12.8937 C.2     1  UNL1        0.2512
     42 O          62.2162   84.6222   12.1450 O.2     1  UNL1       -0.2698
     43 H          64.0229   83.0584   14.6827 H       1  UNL1        0.1552
     44 C          62.8571   82.1123   12.3449 C.ar    1  UNL1        0.0778
     45 C          62.2993   80.9923   13.1722 C.ar    1  UNL1        0.0820
     46 CL         61.7699   81.2680   14.5483 Cl      1  UNL1       -0.0804
     47 C          62.2708   79.5967   12.6233 C.ar    1  UNL1        0.1104
     48 N          62.8001   79.3210   11.2472 N.ar    1  UNL1       -0.2405
     49 C          63.3580   80.4409   10.4199 C.ar    1  UNL1        0.1104
     50 C          63.3865   81.8366   10.9687 C.ar    1  UNL1        0.0820
     51 CL         63.9443   82.9566   10.1414 Cl      1  UNL1       -0.0804
@<TRIPOS>BOND
     1    31    32    1
     2    32    30    1
     3    30    28    1
     4    28    29    2
     5    28    27    1
     6    27    33    1
     7    33    34    1
     8    34    35   ar
     9    35    36   ar
    10    36    37   ar
    11    37    40    1
    12    40    41   am
    13    41    42    2
    14    41    44    1
    15    44    45   ar
    16    45    46    1
    17    45    47   ar
    18    47    48   ar
    19    48    49   ar
    20    49    50   ar
    21    50    51    1
    22    37    38   ar
    23    38    39   ar
    24    27     1    1
    25     1     2   am
    26     2     3    2
    27     5     2    1
    28     5     6    1
    29     6     7    1
    30     7    21    1
    31    21    23    1
    32    23    24    1
    33    24    25    1
    34    25    26    1
    35     7     8    1
    36     8     9    1
    37     9    10    1
    38    10    11    2
    39    10    12    2
    40    10    13    1
    41    13    14   ar
    42    14    15   ar
    43    15    16    1
    44    15    17   ar
    45    17    18   ar
    46    18    19    1
    47    18    20   ar
    48    39    34   ar
    49     9     5    1
    50    20    13   ar
    51    50    44   ar
    52    26    23    1
    53    40    43    1
    54     1     4    1
    55    21    22    1
