@<TRIPOS>MOLECULE
*****
 31 35 0 0 0
SMALL
GASTEIGER

@<TRIPOS>ATOM
      1 C          59.3383   90.6068    5.5892 C.ar    1  UNL1        0.1383
      2 C          58.5334   91.6797    4.9176 C.ar    1  UNL1        0.0400
      3 C          59.1589   92.5310    3.8528 C.ar    1  UNL1        0.0397
      4 C          60.5894   92.3094    3.4595 C.ar    1  UNL1        0.1344
      5 C          61.3943   91.2365    4.1311 C.ar    1  UNL1        0.0149
      6 C          60.7687   90.3852    5.1959 C.ar    1  UNL1        0.0356
      7 C          62.8248   91.0149    3.7378 C.3     1  UNL1        0.0331
      8 C          63.4504   91.8663    2.6729 C.3     1  UNL1        0.0449
      9 C          62.6455   92.9392    2.0014 C.3     1  UNL1        0.1361
     10 C          64.0759   92.7176    1.6081 C.3     1  UNL1        0.0574
     11 C          64.7015   93.5689    0.5433 C.3     1  UNL1        0.0756
     12 N          63.8966   94.6418   -0.1283 N.3     1  UNL1       -0.2737
     13 C          62.4662   94.8634    0.2650 C.3     1  UNL1        0.0756
     14 C          61.8406   94.0121    1.3298 C.3     1  UNL1        0.0574
     15 O          61.2150   93.1607    2.3947 O.3     1  UNL1       -0.4828
     16 C          64.5222   95.4932   -1.1932 C.3     1  UNL1        0.0575
     17 C          64.3790   95.6049   -2.6821 C.3     1  UNL1        0.0160
     18 C          65.4070   96.6971   -2.6990 C.3     1  UNL1        0.0028
     19 C          65.5502   96.5854   -1.2101 C.3     1  UNL1        0.0160
     20 O          58.7127   89.7554    6.6540 O.3     1  UNL1       -0.4791
     21 C          62.1778   86.9140   10.6440 C.2     1  UNL1        0.2251
     22 O          62.7365   87.6610   11.8186 O.2     1  UNL1       -0.2749
     23 N          61.3115   87.6243    9.6464 N.am    1  UNL1       -0.2793
     24 C          60.7528   86.8773    8.4718 C.3     1  UNL1        0.0971
     25 C          59.8866   87.5877    7.4744 C.3     1  UNL1        0.0650
     26 C          59.5790   89.0451    7.6515 C.3     1  UNL1        0.1693
     27 C          60.1377   89.7921    8.8261 C.3     1  UNL1        0.0650
     28 C          61.0040   89.0817    9.8236 C.3     1  UNL1        0.0971
     29 C          63.0234   84.9572    9.1587 C.3     1  UNL1        0.0096
     30 C          62.4854   85.4566   10.4668 C.3     1  UNL1        0.0767
     31 C          62.2548   84.4985   11.5978 C.3     1  UNL1        0.0096
@<TRIPOS>BOND
     1    29    30    1
     2    30    31    1
     3    30    21    1
     4    21    22    2
     5    21    23   am
     6    23    24    1
     7    24    25    1
     8    25    26    1
     9    26    20    1
    10    20     1    1
    11     1     2   ar
    12     2     3   ar
    13     3     4   ar
    14     4     5   ar
    15     5     6   ar
    16     5     7    1
    17     7     8    1
    18     8     9    1
    19     9    10    1
    20    10    11    1
    21    11    12    1
    22    12    16    1
    23    16    17    1
    24    17    18    1
    25    18    19    1
    26    12    13    1
    27    13    14    1
    28     9    15    1
    29    26    27    1
    30    27    28    1
    31    28    23    1
    32     6     1   ar
    33    14     9    1
    34    15     4    1
    35    19    16    1
@<TRIPOS>MOLECULE
*****
 31 35 0 0 0
SMALL
GASTEIGER

@<TRIPOS>ATOM
      1 C          64.2725   90.5897   13.5895 C.ar    1  UNL1        0.1383
      2 C          63.4900   90.2542   12.3546 C.ar    1  UNL1        0.0400
      3 C          63.1641   88.8246   12.0385 C.ar    1  UNL1        0.0397
      4 C          63.6207   87.7304   12.9574 C.ar    1  UNL1        0.1344
      5 C          64.4031   88.0659   14.1923 C.ar    1  UNL1        0.0149
      6 C          64.7291   89.4955   14.5084 C.ar    1  UNL1        0.0356
      7 C          64.8597   86.9717   15.1112 C.3     1  UNL1        0.0331
      8 C          64.5337   85.5420   14.7951 C.3     1  UNL1        0.0449
      9 C          63.7513   85.2066   13.5602 C.3     1  UNL1        0.1361
     10 C          64.2078   84.1124   14.4790 C.3     1  UNL1        0.0574
     11 C          63.8819   82.6828   14.1629 C.3     1  UNL1        0.0756
     12 N          63.0994   82.3474   12.9279 N.3     1  UNL1       -0.2737
     13 C          62.6428   83.4415   12.0091 C.3     1  UNL1        0.0756
     14 C          62.9688   84.8711   12.3252 C.3     1  UNL1        0.0574
     15 O          63.2947   86.3008   12.6412 O.3     1  UNL1       -0.4828
     16 C          62.7735   80.9177   12.6119 C.3     1  UNL1        0.0575
     17 C          62.3026   79.7363   13.4072 C.3     1  UNL1        0.0160
     18 C          62.3126   78.8959   12.1648 C.3     1  UNL1        0.0028
     19 C          62.7834   80.0773   11.3694 C.3     1  UNL1        0.0160
     20 O          64.5985   92.0193   13.9056 O.3     1  UNL1       -0.4791
     21 C          67.1880   95.4941    9.7559 C.2     1  UNL1        0.2251
     22 O          67.8179   96.7957   10.1545 O.2     1  UNL1       -0.2749
     23 N          66.5406   94.6254   10.7934 N.am    1  UNL1       -0.2793
     24 C          65.9106   93.3238   10.3947 C.3     1  UNL1        0.0971
     25 C          65.2633   92.4551   11.4321 C.3     1  UNL1        0.0650
     26 C          65.2459   92.8880   12.8682 C.3     1  UNL1        0.1693
     27 C          65.8758   94.1896   13.2668 C.3     1  UNL1        0.0650
     28 C          66.5232   95.0583   12.2294 C.3     1  UNL1        0.0971
     29 C          68.0728   93.9144    7.8927 C.3     1  UNL1        0.0096
     30 C          67.2054   95.0612    8.3199 C.3     1  UNL1        0.0767
     31 C          66.3554   95.7751    7.3109 C.3     1  UNL1        0.0096
@<TRIPOS>BOND
     1    29    30    1
     2    30    31    1
     3    30    21    1
     4    21    22    2
     5    21    23   am
     6    23    24    1
     7    24    25    1
     8    25    26    1
     9    26    20    1
    10    20     1    1
    11     1     2   ar
    12     2     3   ar
    13     3     4   ar
    14     4     5   ar
    15     5     6   ar
    16     5     7    1
    17     7     8    1
    18     8     9    1
    19     9    10    1
    20    10    11    1
    21    11    12    1
    22    12    16    1
    23    16    17    1
    24    17    18    1
    25    18    19    1
    26    12    13    1
    27    13    14    1
    28     9    15    1
    29    26    27    1
    30    27    28    1
    31    28    23    1
    32     6     1   ar
    33    14     9    1
    34    15     4    1
    35    19    16    1
@<TRIPOS>MOLECULE
*****
 31 35 0 0 0
SMALL
GASTEIGER

@<TRIPOS>ATOM
      1 C          59.2354   89.6081    6.8528 C.ar    1  UNL1        0.1383
      2 C          58.9048   88.1459    6.8035 C.ar    1  UNL1        0.0400
      3 C          59.4932   87.2093    7.8167 C.ar    1  UNL1        0.0397
      4 C          60.4122   87.7350    8.8793 C.ar    1  UNL1        0.1344
      5 C          60.7429   89.1973    8.9286 C.ar    1  UNL1        0.0149
      6 C          60.1544   90.1338    7.9154 C.ar    1  UNL1        0.0356
      7 C          61.6618   89.7230    9.9912 C.3     1  UNL1        0.0331
      8 C          62.2503   88.7864   11.0045 C.3     1  UNL1        0.0449
      9 C          61.9196   87.3241   10.9551 C.3     1  UNL1        0.1361
     10 C          62.8386   87.8498   12.0176 C.3     1  UNL1        0.0574
     11 C          63.4270   86.9133   13.0308 C.3     1  UNL1        0.0756
     12 N          63.0964   85.4510   12.9815 N.3     1  UNL1       -0.2737
     13 C          62.1774   84.9253   11.9190 C.3     1  UNL1        0.0756
     14 C          61.5890   85.8618   10.9058 C.3     1  UNL1        0.0574
     15 O          61.0006   86.7984    9.8925 O.3     1  UNL1       -0.4828
     16 C          63.6848   84.5144   13.9948 C.3     1  UNL1        0.0575
     17 C          63.1548   83.3883   14.8320 C.3     1  UNL1        0.0160
     18 C          64.5170   83.1899   15.4277 C.3     1  UNL1        0.0028
     19 C          65.0471   84.3161   14.5905 C.3     1  UNL1        0.0160
     20 O          58.6471   90.5447    5.8396 O.3     1  UNL1       -0.4791
     21 C          62.2083   93.2871    1.8651 C.2     1  UNL1        0.2251
     22 O          63.6572   92.9104    1.7711 O.2     1  UNL1       -0.2749
     23 N          61.3180   92.6015    2.8587 N.am    1  UNL1       -0.2793
     24 C          59.8691   92.9783    2.9527 C.3     1  UNL1        0.0971
     25 C          58.9788   92.2927    3.9463 C.3     1  UNL1        0.0650
     26 C          59.5374   91.2303    4.8460 C.3     1  UNL1        0.1693
     27 C          60.9863   90.8536    4.7520 C.3     1  UNL1        0.0650
     28 C          61.8765   91.5392    3.7584 C.3     1  UNL1        0.0971
     29 C          61.1070   93.9808   -0.3834 C.3     1  UNL1        0.0096
     30 C          61.6497   94.3495    0.9654 C.3     1  UNL1        0.0767
     31 C          61.6339   95.7806    1.4147 C.3     1  UNL1        0.0096
@<TRIPOS>BOND
     1    29    30    1
     2    30    31    1
     3    30    21    1
     4    21    22    2
     5    21    23   am
     6    23    24    1
     7    24    25    1
     8    25    26    1
     9    26    20    1
    10    20     1    1
    11     1     2   ar
    12     2     3   ar
    13     3     4   ar
    14     4     5   ar
    15     5     6   ar
    16     5     7    1
    17     7     8    1
    18     8     9    1
    19     9    10    1
    20    10    11    1
    21    11    12    1
    22    12    16    1
    23    16    17    1
    24    17    18    1
    25    18    19    1
    26    12    13    1
    27    13    14    1
    28     9    15    1
    29    26    27    1
    30    27    28    1
    31    28    23    1
    32     6     1   ar
    33    14     9    1
    34    15     4    1
    35    19    16    1
@<TRIPOS>MOLECULE
*****
 31 35 0 0 0
SMALL
GASTEIGER

@<TRIPOS>ATOM
      1 C          64.4987   90.8431   13.6142 C.ar    1  UNL1        0.1383
      2 C          64.8691   90.1498   14.8918 C.ar    1  UNL1        0.0400
      3 C          64.5889   88.6858   15.0592 C.ar    1  UNL1        0.0397
      4 C          63.9384   87.9149   13.9489 C.ar    1  UNL1        0.1344
      5 C          63.5681   88.6081   12.6713 C.ar    1  UNL1        0.0149
      6 C          63.8482   90.0723   12.5040 C.ar    1  UNL1        0.0356
      7 C          62.9176   87.8373   11.5611 C.3     1  UNL1        0.0331
      8 C          62.6374   86.3732   11.7284 C.3     1  UNL1        0.0449
      9 C          63.0078   85.6800   13.0060 C.3     1  UNL1        0.1361
     10 C          62.3573   84.9092   11.8958 C.3     1  UNL1        0.0574
     11 C          62.0772   83.4451   12.0631 C.3     1  UNL1        0.0756
     12 N          62.4475   82.7519   13.3407 N.3     1  UNL1       -0.2737
     13 C          63.0980   83.5227   14.4510 C.3     1  UNL1        0.0756
     14 C          63.3781   84.9867   14.2836 C.3     1  UNL1        0.0574
     15 O          63.6583   86.4509   14.1163 O.3     1  UNL1       -0.4828
     16 C          62.1674   81.2878   13.5080 C.3     1  UNL1        0.0575
     17 C          61.0218   80.4815   14.0444 C.3     1  UNL1        0.0160
     18 C          61.7713   79.2172   13.7446 C.3     1  UNL1        0.0028
     19 C          62.9168   80.0234   13.2083 C.3     1  UNL1        0.0160
     20 O          64.7788   92.3071   13.4469 O.3     1  UNL1       -0.4791
     21 C          67.5163   94.2904    8.4897 C.2     1  UNL1        0.2251
     22 O          68.4776   93.4020    7.7574 O.2     1  UNL1       -0.2749
     23 N          66.8319   93.7946    9.7290 N.am    1  UNL1       -0.2793
     24 C          65.8705   94.6831   10.4614 C.3     1  UNL1        0.0971
     25 C          65.1862   94.1872   11.7006 C.3     1  UNL1        0.0650
     26 C          65.4632   92.8029   12.2075 C.3     1  UNL1        0.1693
     27 C          66.4246   91.9145   11.4752 C.3     1  UNL1        0.0650
     28 C          67.1089   92.4103   10.2360 C.3     1  UNL1        0.0971
     29 C          67.9035   96.8559    8.6258 C.3     1  UNL1        0.0096
     30 C          67.2392   95.6747    7.9828 C.3     1  UNL1        0.0767
     31 C          66.2978   95.8779    6.8327 C.3     1  UNL1        0.0096
@<TRIPOS>BOND
     1    29    30    1
     2    30    31    1
     3    30    21    1
     4    21    22    2
     5    21    23   am
     6    23    24    1
     7    24    25    1
     8    25    26    1
     9    26    20    1
    10    20     1    1
    11     1     2   ar
    12     2     3   ar
    13     3     4   ar
    14     4     5   ar
    15     5     6   ar
    16     5     7    1
    17     7     8    1
    18     8     9    1
    19     9    10    1
    20    10    11    1
    21    11    12    1
    22    12    16    1
    23    16    17    1
    24    17    18    1
    25    18    19    1
    26    12    13    1
    27    13    14    1
    28     9    15    1
    29    26    27    1
    30    27    28    1
    31    28    23    1
    32     6     1   ar
    33    14     9    1
    34    15     4    1
    35    19    16    1
@<TRIPOS>MOLECULE
*****
 31 35 0 0 0
SMALL
GASTEIGER

@<TRIPOS>ATOM
      1 C          59.2464   90.1158    6.1304 C.ar    1  UNL1        0.1383
      2 C          58.2100   91.0249    5.5392 C.ar    1  UNL1        0.0400
      3 C          58.5707   91.9339    4.4019 C.ar    1  UNL1        0.0397
      4 C          59.9678   91.9338    3.8557 C.ar    1  UNL1        0.1344
      5 C          61.0041   91.0247    4.4469 C.ar    1  UNL1        0.0149
      6 C          60.6434   90.1157    5.5843 C.ar    1  UNL1        0.0356
      7 C          62.4011   91.0245    3.9007 C.3     1  UNL1        0.0331
      8 C          62.7619   91.9336    2.7633 C.3     1  UNL1        0.0449
      9 C          61.7256   92.8427    2.1721 C.3     1  UNL1        0.1361
     10 C          63.1226   92.8426    1.6260 C.3     1  UNL1        0.0574
     11 C          63.4833   93.7516    0.4887 C.3     1  UNL1        0.0756
     12 N          62.4470   94.6607   -0.1025 N.3     1  UNL1       -0.2737
     13 C          61.0500   94.6609    0.4436 C.3     1  UNL1        0.0756
     14 C          60.6893   93.7519    1.5809 C.3     1  UNL1        0.0574
     15 O          60.3285   92.8428    2.7183 O.3     1  UNL1       -0.4828
     16 C          62.8077   95.5697   -1.2399 C.3     1  UNL1        0.0575
     17 C          63.9215   96.5367   -1.5128 C.3     1  UNL1        0.0160
     18 C          63.3178   96.8552   -2.8484 C.3     1  UNL1        0.0028
     19 C          62.2040   95.8883   -2.5756 C.3     1  UNL1        0.0160
     20 O          58.8857   89.2068    7.2677 O.3     1  UNL1       -0.4791
     21 C          62.7217   88.4227   11.8142 C.2     1  UNL1        0.2251
     22 O          63.0781   87.0370   12.2643 O.2     1  UNL1       -0.2749
     23 N          61.7627   88.6188   10.6775 N.am    1  UNL1       -0.2793
     24 C          61.4063   90.0045   10.2274 C.3     1  UNL1        0.0971
     25 C          60.4474   90.2005    9.0909 C.3     1  UNL1        0.0650
     26 C          59.8447   89.0108    8.4044 C.3     1  UNL1        0.1693
     27 C          60.2011   87.6250    8.8545 C.3     1  UNL1        0.0650
     28 C          61.1600   87.4290    9.9911 C.3     1  UNL1        0.0971
     29 C          63.7266   89.5222   13.9429 C.3     1  UNL1        0.0096
     30 C          63.3244   89.6125   12.5007 C.3     1  UNL1        0.0767
     31 C          63.5248   90.8926   11.7449 C.3     1  UNL1        0.0096
@<TRIPOS>BOND
     1    29    30    1
     2    30    31    1
     3    30    21    1
     4    21    22    2
     5    21    23   am
     6    23    24    1
     7    24    25    1
     8    25    26    1
     9    26    20    1
    10    20     1    1
    11     1     2   ar
    12     2     3   ar
    13     3     4   ar
    14     4     5   ar
    15     5     6   ar
    16     5     7    1
    17     7     8    1
    18     8     9    1
    19     9    10    1
    20    10    11    1
    21    11    12    1
    22    12    16    1
    23    16    17    1
    24    17    18    1
    25    18    19    1
    26    12    13    1
    27    13    14    1
    28     9    15    1
    29    26    27    1
    30    27    28    1
    31    28    23    1
    32     6     1   ar
    33    14     9    1
    34    15     4    1
    35    19    16    1
