@<TRIPOS>MOLECULE
*****
 17 19 0 0 0
SMALL
GASTEIGER

@<TRIPOS>ATOM
      1 C          62.5537   90.1530   11.4104 C.3     1  UNL1        0.0896
      2 N          61.7666   89.2870   10.4721 N.3     1  UNL1       -0.2712
      3 C          60.6122   89.7295    9.6226 C.3     1  UNL1        0.0725
      4 C          60.1278   88.5424    8.8440 C.3     1  UNL1        0.0210
      5 C          59.1150   88.0822    7.8378 C.3     1  UNL1        0.0018
      6 C          59.3441   86.6217    7.5842 C.3     1  UNL1        0.0004
      7 C          60.4985   86.1792    8.4337 C.3     1  UNL1        0.0054
      8 C          60.9829   87.3662    9.2123 C.3     1  UNL1        0.0349
      9 C          61.9957   87.8264   10.2185 C.3     1  UNL1        0.0762
     10 C          61.8379   86.1901    9.5806 C.ar    1  UNL1       -0.0206
     11 C          62.7253   85.5562    8.5507 C.ar    1  UNL1       -0.0033
     12 C          63.5804   84.3801    8.9191 C.ar    1  UNL1        0.0119
     13 C          63.5479   83.8379   10.3173 C.ar    1  UNL1        0.0682
     14 CL         64.4029   82.6618   10.6856 Cl      1  UNL1       -0.0814
     15 C          62.6605   84.4718   11.3472 C.ar    1  UNL1        0.0679
     16 CL         62.6281   83.9296   12.7454 Cl      1  UNL1       -0.0814
     17 C          61.8055   85.6480   10.9788 C.ar    1  UNL1        0.0080
@<TRIPOS>BOND
     1     1     2    1
     2     2     3    1
     3     4     3    1
     4     4     5    1
     5     5     6    1
     6     6     7    1
     7     7     8    1
     8     8    10    1
     9    10    11   ar
    10    11    12   ar
    11    12    13   ar
    12    13    14    1
    13    13    15   ar
    14    15    16    1
    15    15    17   ar
    16     8     9    1
    17     9     2    1
    18     8     4    1
    19    17    10   ar
@<TRIPOS>MOLECULE
*****
 17 19 0 0 0
SMALL
GASTEIGER

@<TRIPOS>ATOM
      1 C          64.2880   86.6630   15.0383 C.3     1  UNL1        0.0896
      2 N          63.7073   85.3540   14.5921 N.3     1  UNL1       -0.2712
      3 C          63.3181   84.2123   15.4839 C.3     1  UNL1        0.0725
      4 C          62.7840   83.1095   14.6187 C.3     1  UNL1        0.0210
      5 C          62.2133   81.7224   14.6352 C.3     1  UNL1        0.0018
      6 C          61.9198   81.3252   13.2189 C.3     1  UNL1        0.0004
      7 C          62.3090   82.4667   12.3270 C.3     1  UNL1        0.0054
      8 C          62.8431   83.5696   13.1922 C.3     1  UNL1        0.0349
      9 C          63.4137   84.9567   13.1757 C.3     1  UNL1        0.0762
     10 C          62.9022   84.0296   11.7657 C.ar    1  UNL1       -0.0206
     11 C          63.8041   83.3336   10.7900 C.ar    1  UNL1       -0.0033
     12 C          63.8632   83.7937    9.3635 C.ar    1  UNL1        0.0119
     13 C          63.0203   84.9497    8.9128 C.ar    1  UNL1        0.0682
     14 CL         63.0794   85.4098    7.4863 Cl      1  UNL1       -0.0814
     15 C          62.1184   85.6457    9.8885 C.ar    1  UNL1        0.0679
     16 CL         61.2755   86.8018    9.4378 Cl      1  UNL1       -0.0814
     17 C          62.0593   85.1856   11.3151 C.ar    1  UNL1        0.0080
@<TRIPOS>BOND
     1     1     2    1
     2     2     3    1
     3     4     3    1
     4     4     5    1
     5     5     6    1
     6     6     7    1
     7     7     8    1
     8     8    10    1
     9    10    11   ar
    10    11    12   ar
    11    12    13   ar
    12    13    14    1
    13    13    15   ar
    14    15    16    1
    15    15    17   ar
    16     8     9    1
    17     9     2    1
    18     8     4    1
    19    17    10   ar
@<TRIPOS>MOLECULE
*****
 17 19 0 0 0
SMALL
GASTEIGER

@<TRIPOS>ATOM
      1 C          62.9762   90.2949   12.5371 C.3     1  UNL1        0.0896
      2 N          64.0800   91.0360   13.2314 N.3     1  UNL1       -0.2712
      3 C          64.3949   90.9784   14.6969 C.3     1  UNL1        0.0725
      4 C          65.5723   91.8717   14.9535 C.3     1  UNL1        0.0210
      5 C          66.4946   92.3881   16.0178 C.3     1  UNL1        0.0018
      6 C          67.4773   93.3169   15.3686 C.3     1  UNL1        0.0004
      7 C          67.1625   93.3746   13.9032 C.3     1  UNL1        0.0054
      8 C          65.9851   92.4813   13.6466 C.3     1  UNL1        0.0349
      9 C          65.0628   91.9649   12.5823 C.3     1  UNL1        0.0762
     10 C          66.3979   93.0909   12.3397 C.ar    1  UNL1       -0.0206
     11 C          66.0526   94.5187   12.0358 C.ar    1  UNL1       -0.0033
     12 C          66.4655   95.1282   10.7289 C.ar    1  UNL1        0.0119
     13 C          67.2235   94.3101    9.7259 C.ar    1  UNL1        0.0682
     14 CL         67.6363   94.9197    8.4190 Cl      1  UNL1       -0.0814
     15 C          67.5687   92.8823   10.0298 C.ar    1  UNL1        0.0679
     16 CL         68.3267   92.0642    9.0268 Cl      1  UNL1       -0.0814
     17 C          67.1559   92.2728   11.3368 C.ar    1  UNL1        0.0080
@<TRIPOS>BOND
     1     1     2    1
     2     2     3    1
     3     4     3    1
     4     4     5    1
     5     5     6    1
     6     6     7    1
     7     7     8    1
     8     8    10    1
     9    10    11   ar
    10    11    12   ar
    11    12    13   ar
    12    13    14    1
    13    13    15   ar
    14    15    16    1
    15    15    17   ar
    16     8     9    1
    17     9     2    1
    18     8     4    1
    19    17    10   ar
@<TRIPOS>MOLECULE
*****
 17 19 0 0 0
SMALL
GASTEIGER

@<TRIPOS>ATOM
      1 C          61.2951   81.0982   14.1745 C.3     1  UNL1        0.0896
      2 N          62.0371   82.3987   14.2631 N.3     1  UNL1       -0.2712
      3 C          62.5106   83.0597   15.5237 C.3     1  UNL1        0.0725
      4 C          63.2021   84.3361   15.1464 C.3     1  UNL1        0.0210
      5 C          63.9220   85.5335   15.6923 C.3     1  UNL1        0.0018
      6 C          64.3209   86.4015   14.5358 C.3     1  UNL1        0.0004
      7 C          63.8475   85.7406   13.2752 C.3     1  UNL1        0.0054
      8 C          63.1560   84.4642   13.6526 C.3     1  UNL1        0.0349
      9 C          62.4361   83.2668   13.1066 C.3     1  UNL1        0.0762
     10 C          63.1100   84.5922   12.1587 C.ar    1  UNL1       -0.0206
     11 C          63.8420   83.6053   11.2985 C.ar    1  UNL1       -0.0033
     12 C          63.7959   83.7334    9.8046 C.ar    1  UNL1        0.0119
     13 C          63.0178   84.8483    9.1712 C.ar    1  UNL1        0.0682
     14 CL         62.9717   84.9763    7.6773 Cl      1  UNL1       -0.0814
     15 C          62.2857   85.8352   10.0314 C.ar    1  UNL1        0.0679
     16 CL         61.5076   86.9501    9.3978 Cl      1  UNL1       -0.0814
     17 C          62.3318   85.7071   11.5253 C.ar    1  UNL1        0.0080
@<TRIPOS>BOND
     1     1     2    1
     2     2     3    1
     3     4     3    1
     4     4     5    1
     5     5     6    1
     6     6     7    1
     7     7     8    1
     8     8    10    1
     9    10    11   ar
    10    11    12   ar
    11    12    13   ar
    12    13    14    1
    13    13    15   ar
    14    15    16    1
    15    15    17   ar
    16     8     9    1
    17     9     2    1
    18     8     4    1
    19    17    10   ar
@<TRIPOS>MOLECULE
*****
 17 19 0 0 0
SMALL
GASTEIGER

@<TRIPOS>ATOM
      1 C          64.0078   88.8405   13.7453 C.3     1  UNL1        0.0896
      2 N          63.2735   88.1975   12.6064 N.3     1  UNL1       -0.2712
      3 C          62.5507   88.9159   11.5056 C.3     1  UNL1        0.0725
      4 C          61.9634   87.8855   10.5872 C.3     1  UNL1        0.0210
      5 C          61.1538   87.6928    9.3392 C.3     1  UNL1        0.0018
      6 C          61.0131   86.2185    9.1012 C.3     1  UNL1        0.0004
      7 C          61.7358   85.5001   10.2019 C.3     1  UNL1        0.0054
      8 C          62.3231   86.5304   11.1204 C.3     1  UNL1        0.0349
      9 C          63.1328   86.7232   12.3683 C.3     1  UNL1        0.0762
     10 C          62.6829   85.1753   11.6535 C.ar    1  UNL1       -0.0206
     11 C          63.3081   84.1551   10.7489 C.ar    1  UNL1       -0.0033
     12 C          63.6678   82.8000   11.2822 C.ar    1  UNL1        0.0119
     13 C          63.4023   82.4652   12.7200 C.ar    1  UNL1        0.0682
     14 CL         63.7620   81.1100   13.2532 Cl      1  UNL1       -0.0814
     15 C          62.7770   83.4853   13.6246 C.ar    1  UNL1        0.0679
     16 CL         62.5116   83.1504   15.0624 Cl      1  UNL1       -0.0814
     17 C          62.4174   84.8404   13.0913 C.ar    1  UNL1        0.0080
@<TRIPOS>BOND
     1     1     2    1
     2     2     3    1
     3     4     3    1
     4     4     5    1
     5     5     6    1
     6     6     7    1
     7     7     8    1
     8     8    10    1
     9    10    11   ar
    10    11    12   ar
    11    12    13   ar
    12    13    14    1
    13    13    15   ar
    14    15    16    1
    15    15    17   ar
    16     8     9    1
    17     9     2    1
    18     8     4    1
    19    17    10   ar
@<TRIPOS>MOLECULE
*****
 17 19 0 0 0
SMALL
GASTEIGER

@<TRIPOS>ATOM
      1 C          62.7491   80.8130   12.3714 C.3     1  UNL1        0.0896
      2 N          63.0963   82.2094   12.7949 N.3     1  UNL1       -0.2712
      3 C          63.8350   82.5945   14.0423 C.3     1  UNL1        0.0725
      4 C          63.9611   84.0890   14.0638 C.3     1  UNL1        0.0210
      5 C          64.4955   85.2506   14.8480 C.3     1  UNL1        0.0018
      6 C          64.1650   86.5072   14.0985 C.3     1  UNL1        0.0004
      7 C          63.4263   86.1222   12.8510 C.3     1  UNL1        0.0054
      8 C          63.3003   84.6276   12.8296 C.3     1  UNL1        0.0349
      9 C          62.7658   83.4660   12.0454 C.3     1  UNL1        0.0762
     10 C          62.6395   85.1663   11.5954 C.ar    1  UNL1       -0.0206
     11 C          61.4909   86.1234   11.7165 C.ar    1  UNL1       -0.0033
     12 C          60.8302   86.6620   10.4822 C.ar    1  UNL1        0.0119
     13 C          61.3180   86.2434    9.1270 C.ar    1  UNL1        0.0682
     14 CL         60.6572   86.7821    7.8928 Cl      1  UNL1       -0.0814
     15 C          62.4666   85.2863    9.0058 C.ar    1  UNL1        0.0679
     16 CL         62.9544   84.8679    7.6505 Cl      1  UNL1       -0.0814
     17 C          63.1273   84.7477   10.2401 C.ar    1  UNL1        0.0080
@<TRIPOS>BOND
     1     1     2    1
     2     2     3    1
     3     4     3    1
     4     4     5    1
     5     5     6    1
     6     6     7    1
     7     7     8    1
     8     8    10    1
     9    10    11   ar
    10    11    12   ar
    11    12    13   ar
    12    13    14    1
    13    13    15   ar
    14    15    16    1
    15    15    17   ar
    16     8     9    1
    17     9     2    1
    18     8     4    1
    19    17    10   ar
@<TRIPOS>MOLECULE
*****
 17 19 0 0 0
SMALL
GASTEIGER

@<TRIPOS>ATOM
      1 C          64.7089   87.1536   14.9983 C.3     1  UNL1        0.0896
      2 N          63.9131   86.9329   13.7462 N.3     1  UNL1       -0.2712
      3 C          63.4670   87.9956   12.7861 C.3     1  UNL1        0.0725
      4 C          62.7018   87.3303   11.6808 C.3     1  UNL1        0.0210
      5 C          61.9533   87.5759   10.4043 C.3     1  UNL1        0.0018
      6 C          61.4637   86.2537    9.8924 C.3     1  UNL1        0.0004
      7 C          61.9097   85.1909   10.8524 C.3     1  UNL1        0.0054
      8 C          62.6749   85.8563   11.9577 C.3     1  UNL1        0.0349
      9 C          63.4235   85.6107   13.2342 C.3     1  UNL1        0.0762
     10 C          62.6480   84.3823   12.2347 C.ar    1  UNL1       -0.0206
     11 C          62.2832   83.8825   13.6011 C.ar    1  UNL1       -0.0033
     12 C          62.2563   82.4084   13.8779 C.ar    1  UNL1        0.0119
     13 C          62.5941   81.4344   12.7884 C.ar    1  UNL1        0.0682
     14 CL         62.5672   79.9604   13.0654 Cl      1  UNL1       -0.0814
     15 C          62.9589   81.9343   11.4220 C.ar    1  UNL1        0.0679
     16 CL         63.2968   80.9601   10.3326 Cl      1  UNL1       -0.0814
     17 C          62.9859   83.4083   11.1452 C.ar    1  UNL1        0.0080
@<TRIPOS>BOND
     1     1     2    1
     2     2     3    1
     3     4     3    1
     4     4     5    1
     5     5     6    1
     6     6     7    1
     7     7     8    1
     8     8    10    1
     9    10    11   ar
    10    11    12   ar
    11    12    13   ar
    12    13    14    1
    13    13    15   ar
    14    15    16    1
    15    15    17   ar
    16     8     9    1
    17     9     2    1
    18     8     4    1
    19    17    10   ar
@<TRIPOS>MOLECULE
*****
 17 19 0 0 0
SMALL
GASTEIGER

@<TRIPOS>ATOM
      1 C          63.1070   80.5757   10.8670 C.3     1  UNL1        0.0896
      2 N          63.3459   81.8201   11.6696 N.3     1  UNL1       -0.2712
      3 C          64.0247   81.8911   13.0054 C.3     1  UNL1        0.0725
      4 C          64.0463   83.3270   13.4387 C.3     1  UNL1        0.0210
      5 C          64.4792   84.2582   14.5320 C.3     1  UNL1        0.0018
      6 C          64.0812   85.6503   14.1397 C.3     1  UNL1        0.0004
      7 C          63.4024   85.5793   12.8040 C.3     1  UNL1        0.0054
      8 C          63.3809   84.1435   12.3707 C.3     1  UNL1        0.0349
      9 C          62.9480   83.2122   11.2773 C.3     1  UNL1        0.0762
     10 C          62.7154   84.9599   11.3027 C.ar    1  UNL1       -0.0206
     11 C          63.0834   84.7547    9.8631 C.ar    1  UNL1       -0.0033
     12 C          62.4179   85.5712    8.7952 C.ar    1  UNL1        0.0119
     13 C          61.3845   86.5929    9.1669 C.ar    1  UNL1        0.0682
     14 CL         60.7190   87.4094    8.0989 Cl      1  UNL1       -0.0814
     15 C          61.0165   86.7982   10.6065 C.ar    1  UNL1        0.0679
     16 CL         59.9831   87.8199   10.9781 Cl      1  UNL1       -0.0814
     17 C          61.6820   85.9816   11.6744 C.ar    1  UNL1        0.0080
@<TRIPOS>BOND
     1     1     2    1
     2     2     3    1
     3     4     3    1
     4     4     5    1
     5     5     6    1
     6     6     7    1
     7     7     8    1
     8     8    10    1
     9    10    11   ar
    10    11    12   ar
    11    12    13   ar
    12    13    14    1
    13    13    15   ar
    14    15    16    1
    15    15    17   ar
    16     8     9    1
    17     9     2    1
    18     8     4    1
    19    17    10   ar
@<TRIPOS>MOLECULE
*****
 17 19 0 0 0
SMALL
GASTEIGER

@<TRIPOS>ATOM
      1 C          59.6790   89.1241    7.8880 C.3     1  UNL1        0.0896
      2 N          60.4238   88.2980    8.8943 N.3     1  UNL1       -0.2712
      3 C          60.2659   86.8227    9.1144 C.3     1  UNL1        0.0725
      4 C          61.2018   86.4150   10.2134 C.3     1  UNL1        0.0210
      5 C          61.6825   85.2513   11.0286 C.3     1  UNL1        0.0018
      6 C          62.7161   85.7555   11.9917 C.3     1  UNL1        0.0004
      7 C          62.8741   87.2309   11.7717 C.3     1  UNL1        0.0054
      8 C          61.9382   87.6385   10.6727 C.3     1  UNL1        0.0349
      9 C          61.4574   88.8022    9.8575 C.3     1  UNL1        0.0762
     10 C          62.6746   88.8619   11.1319 C.ar    1  UNL1       -0.0206
     11 C          62.8433   90.0282   10.2039 C.ar    1  UNL1       -0.0033
     12 C          63.5798   91.2517   10.6632 C.ar    1  UNL1        0.0119
     13 C          64.1474   91.3087   12.0505 C.ar    1  UNL1        0.0682
     14 CL         64.8838   92.5321   12.5097 Cl      1  UNL1       -0.0814
     15 C          63.9787   90.1424   12.9785 C.ar    1  UNL1        0.0679
     16 CL         64.5464   90.1995   14.3657 Cl      1  UNL1       -0.0814
     17 C          63.2423   88.9189   12.5191 C.ar    1  UNL1        0.0080
@<TRIPOS>BOND
     1     1     2    1
     2     2     3    1
     3     4     3    1
     4     4     5    1
     5     5     6    1
     6     6     7    1
     7     7     8    1
     8     8    10    1
     9    10    11   ar
    10    11    12   ar
    11    12    13   ar
    12    13    14    1
    13    13    15   ar
    14    15    16    1
    15    15    17   ar
    16     8     9    1
    17     9     2    1
    18     8     4    1
    19    17    10   ar
