@<TRIPOS>MOLECULE
*****
 33 35 0 0 0
SMALL
GASTEIGER

@<TRIPOS>ATOM
      1 C          63.6381   85.0786   13.5899 C.3     1  UNL1        0.1532
      2 N          63.2954   86.0743   15.9651 N.am    1  UNL1       -0.2750
      3 C          62.5595   86.0933   17.2720 C.3     1  UNL1        0.1149
      4 C          62.9020   85.0975   14.8969 C.2     1  UNL1        0.2439
      5 O          61.7726   84.1397   15.1355 O.2     1  UNL1       -0.2731
      6 C          64.4249   87.0322   15.7264 C.3     1  UNL1        0.1108
      7 C          64.2583   88.1603   14.7520 C.3     1  UNL1        0.0939
      8 C          63.1324   89.5974   16.6005 C.3     1  UNL1        0.0897
      9 N          63.6679   89.4624   15.2059 N.3     1  UNL1       -0.2688
     10 C          63.6131   90.6295   14.2651 C.3     1  UNL1        0.0897
     11 N          63.4507   86.1964   12.6074 N.am    1  UNL1       -0.2978
     12 C          62.4137   86.0816   11.5296 C.2     1  UNL1        0.2257
     13 O          61.5643   84.8490   11.4343 O.2     1  UNL1       -0.2748
     14 H          64.0082   87.0054   12.6700 H       1  UNL1        0.1498
     15 C          62.2263   87.1994   10.5470 C.3     1  UNL1        0.0884
     16 C          62.1045   88.5917   10.0024 C.3     1  UNL1        0.0135
     17 C          62.3501   88.3780   11.4666 C.3     1  UNL1        0.0135
     18 C          62.0375   86.4091    9.2861 C.ar    1  UNL1       -0.0040
     19 C          63.1831   85.6306    8.7104 C.ar    1  UNL1       -0.0021
     20 C          62.9943   84.8402    7.4495 C.ar    1  UNL1        0.0111
     21 C          61.6600   84.8284    6.7645 C.ar    1  UNL1        0.0585
     22 CL         61.4712   84.0381    5.5036 Cl      1  UNL1       -0.0822
     23 C          60.5144   85.6069    7.3403 C.ar    1  UNL1        0.0225
     24 C          60.7032   86.3972    8.6011 C.ar    1  UNL1        0.0550
     25 CL         59.5576   87.1758    9.1769 Cl      1  UNL1       -0.0825
     26 C          64.5614   83.9419   13.2656 C.3     1  UNL1        0.0553
     27 C          64.0870   82.8145   12.3972 C.ar    1  UNL1       -0.0200
     28 C          63.3413   81.6631   13.0039 C.ar    1  UNL1       -0.0037
     29 C          62.8668   80.5358   12.1355 C.ar    1  UNL1        0.0064
     30 C          63.1381   80.5600   10.6604 C.ar    1  UNL1        0.0345
     31 BR         62.6637   79.4326    9.7920 Br      1  UNL1       -0.0490
     32 C          63.8838   81.7114   10.0537 C.ar    1  UNL1        0.0064
     33 C          64.3582   82.8387   10.9221 C.ar    1  UNL1       -0.0037
@<TRIPOS>BOND
     1     8     9    1
     2     9    10    1
     3     9     7    1
     4     7     6    1
     5     6     2    1
     6     2     3    1
     7     2     4   am
     8     4     5    2
     9     4     1    1
    10     1    26    1
    11    26    27    1
    12    27    28   ar
    13    28    29   ar
    14    29    30   ar
    15    30    31    1
    16    30    32   ar
    17    32    33   ar
    18     1    11    1
    19    11    12   am
    20    12    13    2
    21    12    15    1
    22    15    18    1
    23    18    19   ar
    24    19    20   ar
    25    20    21   ar
    26    21    22    1
    27    21    23   ar
    28    23    24   ar
    29    24    25    1
    30    15    16    1
    31    16    17    1
    32    33    27   ar
    33    17    15    1
    34    24    18   ar
    35    11    14    1
@<TRIPOS>MOLECULE
*****
 33 35 0 0 0
SMALL
GASTEIGER

@<TRIPOS>ATOM
      1 C          62.4213   87.9150   11.2997 C.3     1  UNL1        0.1532
      2 N          63.4505   90.0338   12.3958 N.am    1  UNL1       -0.2750
      3 C          63.7351   91.5061   12.3617 C.3     1  UNL1        0.1149
      4 C          62.7059   89.3874   11.2655 C.2     1  UNL1        0.2439
      5 O          62.2458   90.2134   10.1010 O.2     1  UNL1       -0.2731
      6 C          63.9106   89.2078   13.5604 C.3     1  UNL1        0.1108
      7 C          64.6595   89.8532   14.6884 C.3     1  UNL1        0.0939
      8 C          63.0325   89.3210   16.6427 C.3     1  UNL1        0.0897
      9 N          63.9275   90.2865   15.9238 N.3     1  UNL1       -0.2688
     10 C          64.0904   91.6853   16.4404 C.3     1  UNL1        0.0897
     11 N          63.3595   86.9862   12.0116 N.am    1  UNL1       -0.2978
     12 C          62.8324   85.7420   12.6632 C.2     1  UNL1        0.2257
     13 O          61.3672   85.4268   12.6028 O.2     1  UNL1       -0.2748
     14 H          64.3212   87.1930   12.0513 H       1  UNL1        0.1498
     15 C          63.7707   84.8132   13.3752 C.3     1  UNL1        0.0884
     16 C          64.7731   84.3147   14.3734 C.3     1  UNL1        0.0135
     17 C          64.2814   85.7299   14.4470 C.3     1  UNL1        0.0135
     18 C          63.5858   83.5737   12.5506 C.ar    1  UNL1       -0.0040
     19 C          64.2099   83.4783   11.1899 C.ar    1  UNL1       -0.0021
     20 C          64.0251   82.2389   10.3653 C.ar    1  UNL1        0.0111
     21 C          63.2162   81.0951   10.9014 C.ar    1  UNL1        0.0585
     22 CL         63.0314   79.8558   10.0769 Cl      1  UNL1       -0.0822
     23 C          62.5921   81.1906   12.2622 C.ar    1  UNL1        0.0225
     24 C          62.7770   82.4300   13.0867 C.ar    1  UNL1        0.0550
     25 CL         62.1529   82.5255   14.4474 Cl      1  UNL1       -0.0825
     26 C          61.1985   87.3716   10.6219 C.3     1  UNL1        0.0553
     27 C          61.3336   86.5680    9.3625 C.ar    1  UNL1       -0.0200
     28 C          62.6481   85.9350    9.0141 C.ar    1  UNL1       -0.0037
     29 C          62.7831   85.1315    7.7547 C.ar    1  UNL1        0.0064
     30 C          61.6038   84.9611    6.8436 C.ar    1  UNL1        0.0345
     31 BR         61.7389   84.1576    5.5842 Br      1  UNL1       -0.0490
     32 C          60.2893   85.5942    7.1920 C.ar    1  UNL1        0.0064
     33 C          60.1542   86.3976    8.4514 C.ar    1  UNL1       -0.0037
@<TRIPOS>BOND
     1     8     9    1
     2     9    10    1
     3     9     7    1
     4     7     6    1
     5     6     2    1
     6     2     3    1
     7     2     4   am
     8     4     5    2
     9     4     1    1
    10     1    26    1
    11    26    27    1
    12    27    28   ar
    13    28    29   ar
    14    29    30   ar
    15    30    31    1
    16    30    32   ar
    17    32    33   ar
    18     1    11    1
    19    11    12   am
    20    12    13    2
    21    12    15    1
    22    15    18    1
    23    18    19   ar
    24    19    20   ar
    25    20    21   ar
    26    21    22    1
    27    21    23   ar
    28    23    24   ar
    29    24    25    1
    30    15    16    1
    31    16    17    1
    32    33    27   ar
    33    17    15    1
    34    24    18   ar
    35    11    14    1
@<TRIPOS>MOLECULE
*****
 33 35 0 0 0
SMALL
GASTEIGER

@<TRIPOS>ATOM
      1 C          64.1016   88.4690   14.4259 C.3     1  UNL1        0.1532
      2 N          64.0153   90.6589   15.8213 N.am    1  UNL1       -0.2750
      3 C          63.4182   91.4668   16.9352 C.3     1  UNL1        0.1149
      4 C          63.5044   89.2770   15.5399 C.2     1  UNL1        0.2439
      5 O          62.3965   88.7029   16.3722 O.2     1  UNL1       -0.2731
      6 C          65.1233   91.2330   14.9889 C.3     1  UNL1        0.1108
      7 C          65.9530   92.3635   15.5213 C.3     1  UNL1        0.0939
      8 C          68.4238   93.0054   15.0388 C.3     1  UNL1        0.0897
      9 N          66.9768   93.0205   14.6438 N.3     1  UNL1       -0.2688
     10 C          66.5537   93.6927   13.3714 C.3     1  UNL1        0.0897
     11 N          64.1270   89.0191   13.0307 N.am    1  UNL1       -0.2978
     12 C          62.9010   89.6655   12.4569 C.2     1  UNL1        0.2257
     13 O          61.6497   89.7619   13.2784 O.2     1  UNL1       -0.2748
     14 H          64.9483   88.9558   12.4915 H       1  UNL1        0.1498
     15 C          62.9263   90.2156   11.0616 C.3     1  UNL1        0.0884
     16 C          63.2314   91.1298    9.9123 C.3     1  UNL1        0.0135
     17 C          63.7405   91.4554   11.2852 C.3     1  UNL1        0.0135
     18 C          62.1210   89.1667   10.3534 C.ar    1  UNL1       -0.0040
     19 C          62.7855   87.9139    9.8647 C.ar    1  UNL1       -0.0021
     20 C          61.9801   86.8650    9.1566 C.ar    1  UNL1        0.0111
     21 C          60.5104   87.0691    8.9372 C.ar    1  UNL1        0.0585
     22 CL         59.7050   86.0203    8.2290 Cl      1  UNL1       -0.0822
     23 C          59.8459   88.3220    9.4259 C.ar    1  UNL1        0.0225
     24 C          60.6512   89.3708   10.1340 C.ar    1  UNL1        0.0550
     25 CL         59.9868   90.6237   10.6228 Cl      1  UNL1       -0.0825
     26 C          64.6733   87.1112   14.7073 C.3     1  UNL1        0.0553
     27 C          64.1840   85.9179   13.9412 C.ar    1  UNL1       -0.0200
     28 C          63.0956   86.0761   12.9214 C.ar    1  UNL1       -0.0037
     29 C          62.6063   84.8829   12.1554 C.ar    1  UNL1        0.0064
     30 C          63.2056   83.5314   12.4092 C.ar    1  UNL1        0.0345
     31 BR         62.7163   82.3382   11.6431 Br      1  UNL1       -0.0490
     32 C          64.2940   83.3732   13.4291 C.ar    1  UNL1        0.0064
     33 C          64.7833   84.5664   14.1951 C.ar    1  UNL1       -0.0037
@<TRIPOS>BOND
     1     8     9    1
     2     9    10    1
     3     9     7    1
     4     7     6    1
     5     6     2    1
     6     2     3    1
     7     2     4   am
     8     4     5    2
     9     4     1    1
    10     1    26    1
    11    26    27    1
    12    27    28   ar
    13    28    29   ar
    14    29    30   ar
    15    30    31    1
    16    30    32   ar
    17    32    33   ar
    18     1    11    1
    19    11    12   am
    20    12    13    2
    21    12    15    1
    22    15    18    1
    23    18    19   ar
    24    19    20   ar
    25    20    21   ar
    26    21    22    1
    27    21    23   ar
    28    23    24   ar
    29    24    25    1
    30    15    16    1
    31    16    17    1
    32    33    27   ar
    33    17    15    1
    34    24    18   ar
    35    11    14    1
@<TRIPOS>MOLECULE
*****
 33 35 0 0 0
SMALL
GASTEIGER

@<TRIPOS>ATOM
      1 C          63.7571   90.8288   12.5233 C.3     1  UNL1        0.1532
      2 N          65.5513   92.4966   11.6576 N.am    1  UNL1       -0.2750
      3 C          66.0599   93.4186   10.5893 C.3     1  UNL1        0.1149
      4 C          64.2657   91.7508   11.4549 C.2     1  UNL1        0.2439
      5 O          63.4886   91.9272   10.1841 O.2     1  UNL1       -0.2731
      6 C          66.3283   92.3202   12.9285 C.3     1  UNL1        0.1108
      7 C          66.5239   93.4832   13.8554 C.3     1  UNL1        0.0939
      8 C          66.0304   92.6229   16.2567 C.3     1  UNL1        0.0897
      9 N          66.9691   93.2493   15.2686 N.3     1  UNL1       -0.2688
     10 C          68.3531   93.6418   15.6937 C.3     1  UNL1        0.0897
     11 N          62.3311   90.3642   12.4965 N.am    1  UNL1       -0.2978
     12 C          61.8633   89.4411   11.4106 C.2     1  UNL1        0.2257
     13 O          62.8214   88.9827   10.3515 O.2     1  UNL1       -0.2748
     14 H          61.7022   90.6651   13.1916 H       1  UNL1        0.1498
     15 C          60.4373   88.9766   11.3838 C.3     1  UNL1        0.0884
     16 C          58.9897   88.8477   11.7548 C.3     1  UNL1        0.0135
     17 C          59.8796   89.7817   12.5199 C.3     1  UNL1        0.0135
     18 C          60.4996   88.0100   10.2383 C.ar    1  UNL1       -0.0040
     19 C          59.9775   88.4101    8.8902 C.ar    1  UNL1       -0.0021
     20 C          60.0399   87.4435    7.7448 C.ar    1  UNL1        0.0111
     21 C          60.6243   86.0771    7.9474 C.ar    1  UNL1        0.0585
     22 CL         60.6867   85.1106    6.8020 Cl      1  UNL1       -0.0822
     23 C          61.1465   85.6771    9.2956 C.ar    1  UNL1        0.0225
     24 C          61.0841   86.6436   10.4410 C.ar    1  UNL1        0.0550
     25 CL         61.6062   86.2435   11.7891 Cl      1  UNL1       -0.0825
     26 C          64.6745   90.3713   13.6182 C.3     1  UNL1        0.0553
     27 C          64.1861   89.3948   14.6469 C.ar    1  UNL1       -0.0200
     28 C          64.3961   87.9236   14.4436 C.ar    1  UNL1       -0.0037
     29 C          63.9077   86.9472   15.4722 C.ar    1  UNL1        0.0064
     30 C          63.2094   87.4420   16.7041 C.ar    1  UNL1        0.0345
     31 BR         62.7211   86.4655   17.7327 Br      1  UNL1       -0.0490
     32 C          62.9995   88.9132   16.9074 C.ar    1  UNL1        0.0064
     33 C          63.4878   89.8896   15.8788 C.ar    1  UNL1       -0.0037
@<TRIPOS>BOND
     1     8     9    1
     2     9    10    1
     3     9     7    1
     4     7     6    1
     5     6     2    1
     6     2     3    1
     7     2     4   am
     8     4     5    2
     9     4     1    1
    10     1    26    1
    11    26    27    1
    12    27    28   ar
    13    28    29   ar
    14    29    30   ar
    15    30    31    1
    16    30    32   ar
    17    32    33   ar
    18     1    11    1
    19    11    12   am
    20    12    13    2
    21    12    15    1
    22    15    18    1
    23    18    19   ar
    24    19    20   ar
    25    20    21   ar
    26    21    22    1
    27    21    23   ar
    28    23    24   ar
    29    24    25    1
    30    15    16    1
    31    16    17    1
    32    33    27   ar
    33    17    15    1
    34    24    18   ar
    35    11    14    1
@<TRIPOS>MOLECULE
*****
 33 35 0 0 0
SMALL
GASTEIGER

@<TRIPOS>ATOM
      1 C          64.2623   88.5860   14.6212 C.3     1  UNL1        0.1532
      2 N          63.3300   86.8863   16.3509 N.am    1  UNL1       -0.2750
      3 C          62.4390   86.5760   17.5169 C.3     1  UNL1        0.1149
      4 C          63.3712   88.2758   15.7873 C.2     1  UNL1        0.2439
      5 O          62.5213   89.3549   16.3897 O.2     1  UNL1       -0.2731
      6 C          64.1800   85.8071   15.7484 C.3     1  UNL1        0.1108
      7 C          63.6942   84.3879   15.7380 C.3     1  UNL1        0.0939
      8 C          64.0500   84.1610   13.1744 C.3     1  UNL1        0.0897
      9 N          63.3736   83.7144   14.4366 N.3     1  UNL1       -0.2688
     10 C          62.3767   82.5943   14.3974 C.3     1  UNL1        0.0897
     11 N          65.2817   89.6812   14.7269 N.am    1  UNL1       -0.2978
     12 C          64.8445   91.1161   14.7197 C.2     1  UNL1        0.2257
     13 O          63.3878   91.4557   14.6069 O.2     1  UNL1       -0.2748
     14 H          66.2378   89.4583   14.8009 H       1  UNL1        0.1498
     15 C          65.8639   92.2114   14.8254 C.3     1  UNL1        0.0884
     16 C          66.7034   93.3030   15.4199 C.3     1  UNL1        0.0135
     17 C          65.6997   92.5816   16.2697 C.3     1  UNL1        0.0135
     18 C          66.3823   92.2215   13.4178 C.ar    1  UNL1       -0.0040
     19 C          65.4525   92.5166   12.2783 C.ar    1  UNL1       -0.0021
     20 C          65.9709   92.5267   10.8707 C.ar    1  UNL1        0.0111
     21 C          67.4189   92.2417   10.6027 C.ar    1  UNL1        0.0585
     22 CL         67.9373   92.2518    9.1951 Cl      1  UNL1       -0.0822
     23 C          68.3487   91.9466   11.7422 C.ar    1  UNL1        0.0225
     24 C          67.8303   91.9365   13.1497 C.ar    1  UNL1        0.0550
     25 CL         68.7601   91.6414   14.2893 Cl      1  UNL1       -0.0825
     26 C          64.1339   87.8011   13.3494 C.3     1  UNL1        0.0553
     27 C          63.1597   88.2358   12.2949 C.ar    1  UNL1       -0.0200
     28 C          62.3833   87.2106   11.5227 C.ar    1  UNL1       -0.0037
     29 C          61.4092   87.6453   10.4682 C.ar    1  UNL1        0.0064
     30 C          61.2114   89.1052   10.1858 C.ar    1  UNL1        0.0345
     31 BR         60.2372   89.5398    9.1313 Br      1  UNL1       -0.0490
     32 C          61.9878   90.1303   10.9580 C.ar    1  UNL1        0.0064
     33 C          62.9619   89.6956   12.0125 C.ar    1  UNL1       -0.0037
@<TRIPOS>BOND
     1     8     9    1
     2     9    10    1
     3     9     7    1
     4     7     6    1
     5     6     2    1
     6     2     3    1
     7     2     4   am
     8     4     5    2
     9     4     1    1
    10     1    26    1
    11    26    27    1
    12    27    28   ar
    13    28    29   ar
    14    29    30   ar
    15    30    31    1
    16    30    32   ar
    17    32    33   ar
    18     1    11    1
    19    11    12   am
    20    12    13    2
    21    12    15    1
    22    15    18    1
    23    18    19   ar
    24    19    20   ar
    25    20    21   ar
    26    21    22    1
    27    21    23   ar
    28    23    24   ar
    29    24    25    1
    30    15    16    1
    31    16    17    1
    32    33    27   ar
    33    17    15    1
    34    24    18   ar
    35    11    14    1
@<TRIPOS>MOLECULE
*****
 33 35 0 0 0
SMALL
GASTEIGER

@<TRIPOS>ATOM
      1 C          63.6369   90.3202   12.4085 C.3     1  UNL1        0.1532
      2 N          65.0761   92.3674   11.7098 N.am    1  UNL1       -0.2750
      3 C          65.3530   93.4988   10.7648 C.3     1  UNL1        0.1149
      4 C          63.9138   91.4517   11.4634 C.2     1  UNL1        0.2439
      5 O          63.0285   91.6675   10.2719 O.2     1  UNL1       -0.2731
      6 C          65.9614   92.1516   12.9014 C.3     1  UNL1        0.1108
      7 C          66.4435   93.3262   13.7001 C.3     1  UNL1        0.0939
      8 C          65.8465   92.5349   16.1016 C.3     1  UNL1        0.0897
      9 N          66.8210   93.1493   15.1409 N.3     1  UNL1       -0.2688
     10 C          68.1731   93.5867   15.6212 C.3     1  UNL1        0.0897
     11 N          62.5030   89.3766   12.1369 N.am    1  UNL1       -0.2978
     12 C          62.4175   88.6667   10.8182 C.2     1  UNL1        0.2257
     13 O          63.4659   88.9004    9.7712 O.2     1  UNL1       -0.2748
     14 H          61.8149   89.2232   12.8241 H       1  UNL1        0.1498
     15 C          61.2836   87.7231   10.5466 C.3     1  UNL1        0.0884
     16 C          59.9099   87.2347   10.1939 C.3     1  UNL1        0.0135
     17 C          60.1993   88.7063   10.2186 C.3     1  UNL1        0.0135
     18 C          61.9741   86.4120   10.7803 C.ar    1  UNL1       -0.0040
     19 C          62.1792   85.9113   12.1793 C.ar    1  UNL1       -0.0021
     20 C          62.8697   84.6003   12.4129 C.ar    1  UNL1        0.0111
     21 C          63.3549   83.7900   11.2476 C.ar    1  UNL1        0.0585
     22 CL         64.0454   82.4791   11.4812 Cl      1  UNL1       -0.0822
     23 C          63.1498   84.2908    9.8486 C.ar    1  UNL1        0.0225
     24 C          62.4593   85.6018    9.6150 C.ar    1  UNL1        0.0550
     25 CL         62.2542   86.1025    8.2159 Cl      1  UNL1       -0.0825
     26 C          64.4939   90.1324   13.6251 C.3     1  UNL1        0.0553
     27 C          64.0613   89.1901   14.7091 C.ar    1  UNL1       -0.0200
     28 C          63.3432   89.7152   15.9168 C.ar    1  UNL1       -0.0037
     29 C          62.9107   88.7728   17.0007 C.ar    1  UNL1        0.0064
     30 C          63.1962   87.3055   16.8769 C.ar    1  UNL1        0.0345
     31 BR         62.7636   86.3631   17.9609 Br      1  UNL1       -0.0490
     32 C          63.9142   86.7804   15.6692 C.ar    1  UNL1        0.0064
     33 C          64.3468   87.7227   14.5853 C.ar    1  UNL1       -0.0037
@<TRIPOS>BOND
     1     8     9    1
     2     9    10    1
     3     9     7    1
     4     7     6    1
     5     6     2    1
     6     2     3    1
     7     2     4   am
     8     4     5    2
     9     4     1    1
    10     1    26    1
    11    26    27    1
    12    27    28   ar
    13    28    29   ar
    14    29    30   ar
    15    30    31    1
    16    30    32   ar
    17    32    33   ar
    18     1    11    1
    19    11    12   am
    20    12    13    2
    21    12    15    1
    22    15    18    1
    23    18    19   ar
    24    19    20   ar
    25    20    21   ar
    26    21    22    1
    27    21    23   ar
    28    23    24   ar
    29    24    25    1
    30    15    16    1
    31    16    17    1
    32    33    27   ar
    33    17    15    1
    34    24    18   ar
    35    11    14    1
@<TRIPOS>MOLECULE
*****
 33 35 0 0 0
SMALL
GASTEIGER

@<TRIPOS>ATOM
      1 C          63.9574   90.3962   14.1969 C.3     1  UNL1        0.1532
      2 N          63.6944   88.3314   15.7518 N.am    1  UNL1       -0.2750
      3 C          63.2522   87.7344   17.0548 C.3     1  UNL1        0.1149
      4 C          63.5152   89.7993   15.5001 C.2     1  UNL1        0.2439
      5 O          62.8939   90.6701   16.5515 O.2     1  UNL1       -0.2731
      6 C          64.3158   87.4606   14.7003 C.3     1  UNL1        0.1108
      7 C          64.6662   86.0368   15.0167 C.3     1  UNL1        0.0939
      8 C          62.6703   84.4200   15.4071 C.3     1  UNL1        0.0897
      9 N          63.7838   84.9228   14.5368 N.3     1  UNL1       -0.2688
     10 C          64.0149   84.3115   13.1866 C.3     1  UNL1        0.0897
     11 N          65.4097   90.6871   13.9597 N.am    1  UNL1       -0.2978
     12 C          66.0651   91.8461   14.6506 C.2     1  UNL1        0.2257
     13 O          65.2682   92.7141   15.5787 O.2     1  UNL1       -0.2748
     14 H          65.9327   90.1173   13.3505 H       1  UNL1        0.1498
     15 C          67.5174   92.1369   14.4134 C.3     1  UNL1        0.0884
     16 C          68.9847   92.2970   14.6802 C.3     1  UNL1        0.0135
     17 C          68.0652   91.8614   15.7823 C.3     1  UNL1        0.0135
     18 C          67.4740   92.5134   12.9619 C.ar    1  UNL1       -0.0040
     19 C          68.0712   91.6007   11.9323 C.ar    1  UNL1       -0.0021
     20 C          68.0278   91.9772   10.4808 C.ar    1  UNL1        0.0111
     21 C          67.3871   93.2663   10.0593 C.ar    1  UNL1        0.0585
     22 CL         67.3437   93.6427    8.6080 Cl      1  UNL1       -0.0822
     23 C          66.7899   94.1789   11.0891 C.ar    1  UNL1        0.0225
     24 C          66.8333   93.8025   12.5404 C.ar    1  UNL1        0.0550
     25 CL         66.2361   94.7151   13.5701 Cl      1  UNL1       -0.0825
     26 C          62.9474   90.7023   13.1311 C.3     1  UNL1        0.0553
     27 C          62.6166   89.6714   12.0929 C.ar    1  UNL1       -0.0200
     28 C          61.9473   90.0819   10.8149 C.ar    1  UNL1       -0.0037
     29 C          61.6166   89.0510    9.7767 C.ar    1  UNL1        0.0064
     30 C          61.9553   87.6095   10.0166 C.ar    1  UNL1        0.0345
     31 BR         61.6246   86.5786    8.9784 Br      1  UNL1       -0.0490
     32 C          62.6246   87.1990   11.2946 C.ar    1  UNL1        0.0064
     33 C          62.9553   88.2299   12.3328 C.ar    1  UNL1       -0.0037
@<TRIPOS>BOND
     1     8     9    1
     2     9    10    1
     3     9     7    1
     4     7     6    1
     5     6     2    1
     6     2     3    1
     7     2     4   am
     8     4     5    2
     9     4     1    1
    10     1    26    1
    11    26    27    1
    12    27    28   ar
    13    28    29   ar
    14    29    30   ar
    15    30    31    1
    16    30    32   ar
    17    32    33   ar
    18     1    11    1
    19    11    12   am
    20    12    13    2
    21    12    15    1
    22    15    18    1
    23    18    19   ar
    24    19    20   ar
    25    20    21   ar
    26    21    22    1
    27    21    23   ar
    28    23    24   ar
    29    24    25    1
    30    15    16    1
    31    16    17    1
    32    33    27   ar
    33    17    15    1
    34    24    18   ar
    35    11    14    1
@<TRIPOS>MOLECULE
*****
 33 35 0 0 0
SMALL
GASTEIGER

@<TRIPOS>ATOM
      1 C          62.5589   88.8026   11.7649 C.3     1  UNL1        0.1532
      2 N          60.8768   87.7720   10.0742 N.am    1  UNL1       -0.2750
      3 C          59.4713   87.4052    9.6998 C.3     1  UNL1        0.1149
      4 C          61.1533   88.4358   11.3906 C.2     1  UNL1        0.2439
      5 O          60.0245   88.7328   12.3326 O.2     1  UNL1       -0.2731
      6 C          62.0057   87.4750    9.1321 C.3     1  UNL1        0.1108
      7 C          62.3543   86.0535    8.8039 C.3     1  UNL1        0.0939
      8 C          60.3586   85.6234    7.1971 C.3     1  UNL1        0.0897
      9 N          61.7959   85.4102    7.5693 N.3     1  UNL1       -0.2688
     10 C          62.6749   84.5536    6.7069 C.3     1  UNL1        0.0897
     11 N          63.4061   87.8352   12.5371 N.am    1  UNL1       -0.2978
     12 C          62.9441   86.4210   12.7291 C.2     1  UNL1        0.2257
     13 O          61.6351   85.9743   12.1489 O.2     1  UNL1       -0.2748
     14 H          64.2653   88.1284   12.9179 H       1  UNL1        0.1498
     15 C          63.7914   85.4536   13.5013 C.3     1  UNL1        0.0884
     16 C          64.7099   84.9164   14.5584 C.3     1  UNL1        0.0135
     17 C          64.2911   86.3563   14.5900 C.3     1  UNL1        0.0135
     18 C          63.5858   84.2147   12.6808 C.ar    1  UNL1       -0.0040
     19 C          64.2208   84.0981   11.3268 C.ar    1  UNL1       -0.0021
     20 C          64.0153   82.8592   10.5063 C.ar    1  UNL1        0.0111
     21 C          63.1748   81.7372   11.0398 C.ar    1  UNL1        0.0585
     22 CL         62.9693   80.4984   10.2193 Cl      1  UNL1       -0.0822
     23 C          62.5399   81.8539   12.3938 C.ar    1  UNL1        0.0225
     24 C          62.7454   83.0927   13.2142 C.ar    1  UNL1        0.0550
     25 CL         62.1104   83.2094   14.5682 Cl      1  UNL1       -0.0825
     26 C          63.1171   90.1368   11.3671 C.3     1  UNL1        0.0553
     27 C          64.0466   90.8666   12.2909 C.ar    1  UNL1       -0.0200
     28 C          64.8787   92.0026   11.7741 C.ar    1  UNL1       -0.0037
     29 C          65.8081   92.7324   12.6979 C.ar    1  UNL1        0.0064
     30 C          65.9054   92.3262   14.1386 C.ar    1  UNL1        0.0345
     31 BR         66.8349   93.0560   15.0625 Br      1  UNL1       -0.0490
     32 C          65.0733   91.1902   14.6554 C.ar    1  UNL1        0.0064
     33 C          64.1439   90.4604   13.7316 C.ar    1  UNL1       -0.0037
@<TRIPOS>BOND
     1     8     9    1
     2     9    10    1
     3     9     7    1
     4     7     6    1
     5     6     2    1
     6     2     3    1
     7     2     4   am
     8     4     5    2
     9     4     1    1
    10     1    26    1
    11    26    27    1
    12    27    28   ar
    13    28    29   ar
    14    29    30   ar
    15    30    31    1
    16    30    32   ar
    17    32    33   ar
    18     1    11    1
    19    11    12   am
    20    12    13    2
    21    12    15    1
    22    15    18    1
    23    18    19   ar
    24    19    20   ar
    25    20    21   ar
    26    21    22    1
    27    21    23   ar
    28    23    24   ar
    29    24    25    1
    30    15    16    1
    31    16    17    1
    32    33    27   ar
    33    17    15    1
    34    24    18   ar
    35    11    14    1
@<TRIPOS>MOLECULE
*****
 33 35 0 0 0
SMALL
GASTEIGER

@<TRIPOS>ATOM
      1 C          62.2454   87.8888   11.1974 C.3     1  UNL1        0.1532
      2 N          60.8006   90.0319   11.4615 N.am    1  UNL1       -0.2750
      3 C          59.4668   90.6796   11.6885 C.3     1  UNL1        0.1149
      4 C          60.9115   88.5365   11.4244 C.2     1  UNL1        0.2439
      5 O          59.6887   87.6887   11.6144 O.2     1  UNL1       -0.2731
      6 C          62.0234   90.8796   11.2716 C.3     1  UNL1        0.1108
      7 C          63.0875   90.9086   12.3285 C.3     1  UNL1        0.0939
      8 C          64.6811   92.1746   10.7137 C.3     1  UNL1        0.0897
      9 N          64.3672   91.6519   12.0842 N.3     1  UNL1       -0.2688
     10 C          65.3331   91.8726   13.2105 C.3     1  UNL1        0.0897
     11 N          62.9907   87.2830   12.3496 N.am    1  UNL1       -0.2978
     12 C          62.8998   85.8084   12.6095 C.2     1  UNL1        0.2257
     13 O          62.0635   84.9397   11.7173 O.2     1  UNL1       -0.2748
     14 H          63.5396   87.8531   12.9352 H       1  UNL1        0.1498
     15 C          63.6451   85.2026   13.7617 C.3     1  UNL1        0.0884
     16 C          64.5310   85.0955   14.9673 C.3     1  UNL1        0.0135
     17 C          64.3087   86.4283   14.3160 C.3     1  UNL1        0.0135
     18 C          63.2405   83.7664   13.6075 C.ar    1  UNL1       -0.0040
     19 C          62.1941   83.1812   14.5089 C.ar    1  UNL1       -0.0021
     20 C          61.7894   81.7450   14.3546 C.ar    1  UNL1        0.0111
     21 C          62.4311   80.8942   13.2991 C.ar    1  UNL1        0.0585
     22 CL         62.0264   79.4580   13.1449 Cl      1  UNL1       -0.0822
     23 C          63.4775   81.4794   12.3977 C.ar    1  UNL1        0.0225
     24 C          63.8822   82.9156   12.5519 C.ar    1  UNL1        0.0550
     25 CL         64.9286   83.5009   11.6505 Cl      1  UNL1       -0.0825
     26 C          62.8338   87.8469    9.8183 C.3     1  UNL1        0.0553
     27 C          62.3486   86.8316    8.8264 C.ar    1  UNL1       -0.0200
     28 C          63.2775   85.7628    8.3318 C.ar    1  UNL1       -0.0037
     29 C          62.7923   84.7477    7.3398 C.ar    1  UNL1        0.0064
     30 C          61.3781   84.8013    6.8425 C.ar    1  UNL1        0.0345
     31 BR         60.8929   83.7860    5.8506 Br      1  UNL1       -0.0490
     32 C          60.4492   85.8701    7.3372 C.ar    1  UNL1        0.0064
     33 C          60.9344   86.8853    8.3291 C.ar    1  UNL1       -0.0037
@<TRIPOS>BOND
     1     8     9    1
     2     9    10    1
     3     9     7    1
     4     7     6    1
     5     6     2    1
     6     2     3    1
     7     2     4   am
     8     4     5    2
     9     4     1    1
    10     1    26    1
    11    26    27    1
    12    27    28   ar
    13    28    29   ar
    14    29    30   ar
    15    30    31    1
    16    30    32   ar
    17    32    33   ar
    18     1    11    1
    19    11    12   am
    20    12    13    2
    21    12    15    1
    22    15    18    1
    23    18    19   ar
    24    19    20   ar
    25    20    21   ar
    26    21    22    1
    27    21    23   ar
    28    23    24   ar
    29    24    25    1
    30    15    16    1
    31    16    17    1
    32    33    27   ar
    33    17    15    1
    34    24    18   ar
    35    11    14    1
