@<TRIPOS>MOLECULE
*****
 20 21 0 0 0
SMALL
GASTEIGER

@<TRIPOS>ATOM
      1 C          63.8916   82.2697   13.5017 C.2     1  UNL1        0.4049
      2 O          64.5596   82.1458   12.1644 O.2     1  UNL1       -0.2262
      3 N          63.7781   83.6118   14.1619 N.am    1  UNL1       -0.2454
      4 C          63.1100   83.7357   15.4992 C.3     1  UNL1        0.1011
      5 C          62.9965   85.0778   16.1594 C.3     1  UNL1        0.0443
      6 C          63.5510   86.2960   15.4823 C.2     1  UNL1       -0.0326
      7 C          63.4375   87.6381   16.1425 C.2     1  UNL1        0.0412
      8 C          64.2191   86.1721   14.1450 C.3     1  UNL1        0.0443
      9 C          64.3326   84.8300   13.4848 C.3     1  UNL1        0.1011
     10 C          63.9921   88.8563   15.4655 C.1     1  UNL1       -0.0583
     11 C          64.5466   90.0745   14.7883 C.1     1  UNL1       -0.0405
     12 C          65.1011   91.2927   14.1112 C.ar    1  UNL1        0.1228
     13 C          64.8446   91.5215   12.6511 C.ar    1  UNL1        0.0276
     14 C          65.3991   92.7397   11.9740 C.ar    1  UNL1        0.0038
     15 C          66.2101   93.7292   12.7570 C.ar    1  UNL1        0.0207
     16 C          66.4666   93.5005   14.2171 C.ar    1  UNL1        0.0996
     17 N          65.9121   92.2823   14.8942 N.ar    1  UNL1       -0.2356
     18 O          63.3371   81.0515   14.1788 O.3     1  UNL1       -0.4345
     19 C          60.7573   80.7539   14.0983 C.3     1  UNL1        0.0513
     20 C          62.1251   80.3681   13.6182 C.3     1  UNL1        0.2102
@<TRIPOS>BOND
     1    19    20    1
     2    20    18    1
     3    18     1    1
     4     1     2    2
     5     1     3   am
     6     3     4    1
     7     4     5    1
     8     5     6    1
     9     6     7    2
    10     7    10    1
    11    10    11    3
    12    11    12    1
    13    12    13   ar
    14    13    14   ar
    15    14    15   ar
    16    15    16   ar
    17    16    17   ar
    18     6     8    1
    19     8     9    1
    20     9     3    1
    21    17    12   ar
@<TRIPOS>MOLECULE
*****
 20 21 0 0 0
SMALL
GASTEIGER

@<TRIPOS>ATOM
      1 C          66.5204   93.6921   13.7091 C.2     1  UNL1        0.4049
      2 O          66.4469   94.7222   12.6212 O.2     1  UNL1       -0.2262
      3 N          65.7584   92.4068   13.5777 N.am    1  UNL1       -0.2454
      4 C          65.8320   91.3768   14.6656 C.3     1  UNL1        0.1011
      5 C          65.0700   90.0914   14.5343 C.3     1  UNL1        0.0443
      6 C          64.2344   89.8361   13.3150 C.2     1  UNL1       -0.0326
      7 C          63.4724   88.5508   13.1837 C.2     1  UNL1        0.0412
      8 C          64.1609   90.8661   12.2271 C.3     1  UNL1        0.0443
      9 C          64.9229   92.1515   12.3585 C.3     1  UNL1        0.1011
     10 C          62.6369   88.2954   11.9644 C.1     1  UNL1       -0.0583
     11 C          61.8013   88.0401   10.7451 C.1     1  UNL1       -0.0405
     12 C          60.9657   87.7848    9.5259 C.ar    1  UNL1        0.1228
     13 C          60.8234   86.3899    8.9927 C.ar    1  UNL1        0.0276
     14 C          59.9879   86.1346    7.7735 C.ar    1  UNL1        0.0038
     15 C          59.2946   87.2741    7.0873 C.ar    1  UNL1        0.0207
     16 C          59.4368   88.6689    7.6204 C.ar    1  UNL1        0.0996
     17 N          60.2724   88.9243    8.8397 N.ar    1  UNL1       -0.2356
     18 O          67.3560   93.9474   14.9283 O.3     1  UNL1       -0.4345
     19 C          68.8380   92.3280   16.3179 C.3     1  UNL1        0.0513
     20 C          68.6483   93.2103   15.1197 C.3     1  UNL1        0.2102
@<TRIPOS>BOND
     1    19    20    1
     2    20    18    1
     3    18     1    1
     4     1     2    2
     5     1     3   am
     6     3     4    1
     7     4     5    1
     8     5     6    1
     9     6     7    2
    10     7    10    1
    11    10    11    3
    12    11    12    1
    13    12    13   ar
    14    13    14   ar
    15    14    15   ar
    16    15    16   ar
    17    16    17   ar
    18     6     8    1
    19     8     9    1
    20     9     3    1
    21    17    12   ar
@<TRIPOS>MOLECULE
*****
 20 21 0 0 0
SMALL
GASTEIGER

@<TRIPOS>ATOM
      1 C          65.3843   91.9673   14.1967 C.2     1  UNL1        0.4049
      2 O          66.1559   91.6040   15.4306 O.2     1  UNL1       -0.2262
      3 N          64.6325   90.9100   13.4438 N.am    1  UNL1       -0.2454
      4 C          63.8609   91.2734   12.2099 C.3     1  UNL1        0.1011
      5 C          63.1090   90.2161   11.4570 C.3     1  UNL1        0.0443
      6 C          63.1287   88.7955   11.9380 C.2     1  UNL1       -0.0326
      7 C          62.3769   87.7382   11.1851 C.2     1  UNL1        0.0412
      8 C          63.9003   88.4321   13.1719 C.3     1  UNL1        0.0443
      9 C          64.6522   89.4894   13.9248 C.3     1  UNL1        0.1011
     10 C          62.3966   86.3176   11.6662 C.1     1  UNL1       -0.0583
     11 C          62.4164   84.8968   12.1472 C.1     1  UNL1       -0.0405
     12 C          62.4361   83.4762   12.6282 C.ar    1  UNL1        0.1228
     13 C          62.8046   82.3699   11.6845 C.ar    1  UNL1        0.0276
     14 C          62.8244   80.9493   12.1656 C.ar    1  UNL1        0.0038
     15 C          62.4756   80.6349   13.5902 C.ar    1  UNL1        0.0207
     16 C          62.1072   81.7411   14.5338 C.ar    1  UNL1        0.0996
     17 N          62.0874   83.1619   14.0528 N.ar    1  UNL1       -0.2356
     18 O          65.3646   93.3879   13.7157 O.3     1  UNL1       -0.4345
     19 C          66.0749   94.6503   11.5588 C.3     1  UNL1        0.0513
     20 C          66.4403   93.8830   12.7949 C.3     1  UNL1        0.2102
@<TRIPOS>BOND
     1    19    20    1
     2    20    18    1
     3    18     1    1
     4     1     2    2
     5     1     3   am
     6     3     4    1
     7     4     5    1
     8     5     6    1
     9     6     7    2
    10     7    10    1
    11    10    11    3
    12    11    12    1
    13    12    13   ar
    14    13    14   ar
    15    14    15   ar
    16    15    16   ar
    17    16    17   ar
    18     6     8    1
    19     8     9    1
    20     9     3    1
    21    17    12   ar
@<TRIPOS>MOLECULE
*****
 20 21 0 0 0
SMALL
GASTEIGER

@<TRIPOS>ATOM
      1 C          63.7236   93.7185    0.6818 C.2     1  UNL1        0.4049
      2 O          65.0692   93.0875    0.8846 O.2     1  UNL1       -0.2262
      3 N          62.5691   93.3193    1.5523 N.am    1  UNL1       -0.2454
      4 C          61.2236   93.9503    1.3495 C.3     1  UNL1        0.1011
      5 C          60.0691   93.5511    2.2201 C.3     1  UNL1        0.0443
      6 C          60.2602   92.5210    3.2934 C.2     1  UNL1       -0.0326
      7 C          59.1057   92.1218    4.1640 C.2     1  UNL1        0.0412
      8 C          61.6058   91.8900    3.4963 C.3     1  UNL1        0.0443
      9 C          62.7602   92.2891    2.6257 C.3     1  UNL1        0.1011
     10 C          59.2968   91.0916    5.2373 C.1     1  UNL1       -0.0583
     11 C          59.4879   90.0614    6.3108 C.1     1  UNL1       -0.0405
     12 C          59.6790   89.0312    7.3841 C.ar    1  UNL1        0.1228
     13 C          59.3090   87.6008    7.1252 C.ar    1  UNL1        0.0276
     14 C          59.5001   86.5706    8.1986 C.ar    1  UNL1        0.0038
     15 C          60.0612   86.9708    9.5309 C.ar    1  UNL1        0.0207
     16 C          60.4312   88.4012    9.7898 C.ar    1  UNL1        0.0996
     17 N          60.2401   89.4314    8.7164 N.ar    1  UNL1       -0.2356
     18 O          63.5325   94.7486   -0.3916 O.3     1  UNL1       -0.4345
     19 C          62.3108   93.4085   -2.2521 C.3     1  UNL1        0.0513
     20 C          63.4192   94.3250   -1.8260 C.3     1  UNL1        0.2102
@<TRIPOS>BOND
     1    19    20    1
     2    20    18    1
     3    18     1    1
     4     1     2    2
     5     1     3   am
     6     3     4    1
     7     4     5    1
     8     5     6    1
     9     6     7    2
    10     7    10    1
    11    10    11    3
    12    11    12    1
    13    12    13   ar
    14    13    14   ar
    15    14    15   ar
    16    15    16   ar
    17    16    17   ar
    18     6     8    1
    19     8     9    1
    20     9     3    1
    21    17    12   ar
@<TRIPOS>MOLECULE
*****
 20 21 0 0 0
SMALL
GASTEIGER

@<TRIPOS>ATOM
      1 C          62.7055   93.3022    1.4277 C.2     1  UNL1        0.4049
      2 O          64.1505   92.9058    1.4950 O.2     1  UNL1       -0.2262
      3 N          61.7262   92.7378    2.4139 N.am    1  UNL1       -0.2454
      4 C          60.2811   93.1342    2.3466 C.3     1  UNL1        0.1011
      5 C          59.3019   92.5698    3.3328 C.3     1  UNL1        0.0443
      6 C          59.7677   91.6090    4.3862 C.2     1  UNL1       -0.0326
      7 C          58.7884   91.0447    5.3724 C.2     1  UNL1        0.0412
      8 C          61.2128   91.2126    4.4535 C.3     1  UNL1        0.0443
      9 C          62.1920   91.7770    3.4674 C.3     1  UNL1        0.1011
     10 C          59.2543   90.0839    6.4259 C.1     1  UNL1       -0.0583
     11 C          59.7201   89.1230    7.4794 C.1     1  UNL1       -0.0405
     12 C          60.1859   88.1622    8.5329 C.ar    1  UNL1        0.1228
     13 C          60.6253   86.7809    8.1468 C.ar    1  UNL1        0.0276
     14 C          61.0911   85.8201    9.2002 C.ar    1  UNL1        0.0038
     15 C          61.1176   86.2406   10.6399 C.ar    1  UNL1        0.0207
     16 C          60.6782   87.6218   11.0260 C.ar    1  UNL1        0.0996
     17 N          60.2123   88.5826    9.9725 N.ar    1  UNL1       -0.2356
     18 O          62.2397   94.2630    0.3742 O.3     1  UNL1       -0.4345
     19 C          60.7623   92.9089   -1.2793 C.3     1  UNL1        0.0513
     20 C          61.9593   93.7738   -1.0158 C.3     1  UNL1        0.2102
@<TRIPOS>BOND
     1    19    20    1
     2    20    18    1
     3    18     1    1
     4     1     2    2
     5     1     3   am
     6     3     4    1
     7     4     5    1
     8     5     6    1
     9     6     7    2
    10     7    10    1
    11    10    11    3
    12    11    12    1
    13    12    13   ar
    14    13    14   ar
    15    14    15   ar
    16    15    16   ar
    17    16    17   ar
    18     6     8    1
    19     8     9    1
    20     9     3    1
    21    17    12   ar
@<TRIPOS>MOLECULE
*****
 20 21 0 0 0
SMALL
GASTEIGER

@<TRIPOS>ATOM
      1 C          66.7201   93.0306   15.8614 C.2     1  UNL1        0.4049
      2 O          66.3052   92.1092   16.9700 O.2     1  UNL1       -0.2262
      3 N          66.1603   92.8444   14.4823 N.am    1  UNL1       -0.2454
      4 C          66.5751   93.7658   13.3738 C.3     1  UNL1        0.1011
      5 C          66.0153   93.5796   11.9947 C.3     1  UNL1        0.0443
      6 C          65.0407   92.4720   11.7241 C.2     1  UNL1       -0.0326
      7 C          64.4809   92.2858   10.3450 C.2     1  UNL1        0.0412
      8 C          64.6258   91.5506   12.8326 C.3     1  UNL1        0.0443
      9 C          65.1856   91.7368   14.2117 C.3     1  UNL1        0.1011
     10 C          63.5062   91.1782   10.0744 C.1     1  UNL1       -0.0583
     11 C          62.5315   90.0706    9.8038 C.1     1  UNL1       -0.0405
     12 C          61.5568   88.9630    9.5332 C.ar    1  UNL1        0.1228
     13 C          61.8010   87.5946   10.0972 C.ar    1  UNL1        0.0276
     14 C          60.8263   86.4870    9.8266 C.ar    1  UNL1        0.0038
     15 C          59.6075   86.7477    8.9921 C.ar    1  UNL1        0.0207
     16 C          59.3633   88.1160    8.4282 C.ar    1  UNL1        0.0996
     17 N          60.3379   89.2237    8.6987 N.ar    1  UNL1       -0.2356
     18 O          67.6947   94.1382   16.1320 O.3     1  UNL1       -0.4345
     19 C          69.6531   92.7130   15.1919 C.3     1  UNL1        0.0513
     20 C          69.1668   93.8971   15.9739 C.3     1  UNL1        0.2102
@<TRIPOS>BOND
     1    19    20    1
     2    20    18    1
     3    18     1    1
     4     1     2    2
     5     1     3   am
     6     3     4    1
     7     4     5    1
     8     5     6    1
     9     6     7    2
    10     7    10    1
    11    10    11    3
    12    11    12    1
    13    12    13   ar
    14    13    14   ar
    15    14    15   ar
    16    15    16   ar
    17    16    17   ar
    18     6     8    1
    19     8     9    1
    20     9     3    1
    21    17    12   ar
@<TRIPOS>MOLECULE
*****
 20 21 0 0 0
SMALL
GASTEIGER

@<TRIPOS>ATOM
      1 C          63.0670   81.2418   11.5848 C.2     1  UNL1        0.4049
      2 O          63.1657   81.4987   10.1103 O.2     1  UNL1       -0.2262
      3 N          63.2671   82.3663   12.5571 N.am    1  UNL1       -0.2454
      4 C          63.1683   82.1093   14.0316 C.3     1  UNL1        0.1011
      5 C          63.3685   83.2339   15.0039 C.3     1  UNL1        0.0443
      6 C          63.6674   84.6153   14.5018 C.2     1  UNL1       -0.0326
      7 C          63.8675   85.7398   15.4741 C.2     1  UNL1        0.0412
      8 C          63.7661   84.8722   13.0273 C.3     1  UNL1        0.0443
      9 C          63.5660   83.7477   12.0549 C.3     1  UNL1        0.1011
     10 C          64.1664   87.1213   14.9719 C.1     1  UNL1       -0.0583
     11 C          64.4653   88.5028   14.4697 C.1     1  UNL1       -0.0405
     12 C          64.7642   89.8842   13.9676 C.ar    1  UNL1        0.1228
     13 C          65.7716   90.7389   14.6780 C.ar    1  UNL1        0.0276
     14 C          66.0705   92.1203   14.1759 C.ar    1  UNL1        0.0038
     15 C          65.3620   92.6472   12.9633 C.ar    1  UNL1        0.0207
     16 C          64.3546   91.7926   12.2528 C.ar    1  UNL1        0.0996
     17 N          64.0557   90.4111   12.7550 N.ar    1  UNL1       -0.2356
     18 O          62.7681   79.8603   12.0869 O.3     1  UNL1       -0.4345
     19 C          62.8665   78.8905    9.6786 C.3     1  UNL1        0.0513
     20 C          62.4569   78.7603   11.1158 C.3     1  UNL1        0.2102
@<TRIPOS>BOND
     1    19    20    1
     2    20    18    1
     3    18     1    1
     4     1     2    2
     5     1     3   am
     6     3     4    1
     7     4     5    1
     8     5     6    1
     9     6     7    2
    10     7    10    1
    11    10    11    3
    12    11    12    1
    13    12    13   ar
    14    13    14   ar
    15    14    15   ar
    16    15    16   ar
    17    16    17   ar
    18     6     8    1
    19     8     9    1
    20     9     3    1
    21    17    12   ar
@<TRIPOS>MOLECULE
*****
 20 21 0 0 0
SMALL
GASTEIGER

@<TRIPOS>ATOM
      1 C          72.6018   80.0734   10.3149 C.2     1  UNL1        0.4049
      2 O          72.4025   79.6333    8.8949 O.2     1  UNL1       -0.2262
      3 N          72.4197   79.0939   11.4363 N.am    1  UNL1       -0.2454
      4 C          72.6190   79.5339   12.8563 C.3     1  UNL1        0.1011
      5 C          72.4369   78.5544   13.9777 C.3     1  UNL1        0.0443
      6 C          72.0554   77.1349   13.6790 C.2     1  UNL1       -0.0326
      7 C          71.8732   76.1554   14.8003 C.2     1  UNL1        0.0412
      8 C          71.8560   76.6948   12.2589 C.3     1  UNL1        0.0443
      9 C          72.0382   77.6743   11.1376 C.3     1  UNL1        0.1011
     10 C          71.4917   74.7358   14.5016 C.1     1  UNL1       -0.0583
     11 C          71.1102   73.3162   14.2029 C.1     1  UNL1       -0.0405
     12 C          70.7287   71.8966   13.9042 C.ar    1  UNL1        0.1228
     13 C          71.3524   70.7735   14.6787 C.ar    1  UNL1        0.0276
     14 C          70.9709   69.3540   14.3800 C.ar    1  UNL1        0.0038
     15 C          69.9657   69.0574   13.3068 C.ar    1  UNL1        0.0207
     16 C          69.3420   70.1804   12.5324 C.ar    1  UNL1        0.0996
     17 N          69.7235   71.6001   12.8311 N.ar    1  UNL1       -0.2356
     18 O          72.9833   81.4929   10.6136 O.3     1  UNL1       -0.4345
     19 C          71.9541   82.9788    8.7473 C.3     1  UNL1        0.0513
     20 C          73.1544   82.4752    9.4930 C.3     1  UNL1        0.2102
@<TRIPOS>BOND
     1    19    20    1
     2    20    18    1
     3    18     1    1
     4     1     2    2
     5     1     3   am
     6     3     4    1
     7     4     5    1
     8     5     6    1
     9     6     7    2
    10     7    10    1
    11    10    11    3
    12    11    12    1
    13    12    13   ar
    14    13    14   ar
    15    14    15   ar
    16    15    16   ar
    17    16    17   ar
    18     6     8    1
    19     8     9    1
    20     9     3    1
    21    17    12   ar
@<TRIPOS>MOLECULE
*****
 20 21 0 0 0
SMALL
GASTEIGER

@<TRIPOS>ATOM
      1 C          61.2149   92.9265    1.4186 C.2     1  UNL1        0.4049
      2 O          60.4567   92.9575    2.7124 O.2     1  UNL1       -0.2262
      3 N          60.5291   93.3011    0.1382 N.am    1  UNL1       -0.2454
      4 C          61.2874   93.2701   -1.1556 C.3     1  UNL1        0.1011
      5 C          60.6016   93.6447   -2.4360 C.3     1  UNL1        0.0443
      6 C          59.1575   94.0502   -2.4226 C.2     1  UNL1       -0.0326
      7 C          58.4717   94.4248   -3.7029 C.2     1  UNL1        0.0412
      8 C          58.3993   94.0812   -1.1287 C.3     1  UNL1        0.0443
      9 C          59.0851   93.7066    0.1517 C.3     1  UNL1        0.1011
     10 C          57.0277   94.8303   -3.6895 C.1     1  UNL1       -0.0583
     11 C          55.5836   95.2359   -3.6760 C.1     1  UNL1       -0.0405
     12 C          54.1395   95.6414   -3.6625 C.ar    1  UNL1        0.1228
     13 C          53.3911   95.7075   -2.3642 C.ar    1  UNL1        0.0276
     14 C          51.9470   96.1130   -2.3507 C.ar    1  UNL1        0.0038
     15 C          51.2513   96.4525   -3.6356 C.ar    1  UNL1        0.0207
     16 C          51.9997   96.3865   -4.9338 C.ar    1  UNL1        0.0996
     17 N          53.4438   95.9809   -4.9473 N.ar    1  UNL1       -0.2356
     18 O          62.6590   92.5210    1.4051 O.3     1  UNL1       -0.4345
     19 C          63.3614   90.8105    3.2302 C.3     1  UNL1        0.0513
     20 C          63.3630   92.2110    2.6929 C.3     1  UNL1        0.2102
@<TRIPOS>BOND
     1    19    20    1
     2    20    18    1
     3    18     1    1
     4     1     2    2
     5     1     3   am
     6     3     4    1
     7     4     5    1
     8     5     6    1
     9     6     7    2
    10     7    10    1
    11    10    11    3
    12    11    12    1
    13    12    13   ar
    14    13    14   ar
    15    14    15   ar
    16    15    16   ar
    17    16    17   ar
    18     6     8    1
    19     8     9    1
    20     9     3    1
    21    17    12   ar
