@<TRIPOS>MOLECULE
*****
 31 34 0 0 0
SMALL
GASTEIGER

@<TRIPOS>ATOM
      1 C          60.2515   87.9221    9.6323 C.ar    1  UNL1        0.1518
      2 C          59.8251   89.2663   10.1434 C.ar    1  UNL1        0.0396
      3 C          60.8566   90.2674   10.5719 C.ar    1  UNL1        0.0236
      4 C          62.3145   89.9244   10.4893 C.ar    1  UNL1        0.1291
      5 C          62.7409   88.5802    9.9781 C.ar    1  UNL1        0.0378
      6 C          61.7095   87.5791    9.5496 C.ar    1  UNL1        0.0804
      7 S          63.3460   90.9257   10.9178 S.O2    1  UNL1        0.0872
      8 O          63.0622   91.7427    9.6924 O.2     1  UNL1       -0.1475
      9 O          63.6299   90.1086   12.1433 O.2     1  UNL1       -0.1475
     10 N          64.3775   91.9269   11.3465 N.ar    1  UNL1       -0.1909
     11 C          64.9591   93.0142   10.4924 C.ar    1  UNL1        0.0973
     12 C          65.9495   93.7758   11.3225 C.ar    1  UNL1        0.0001
     13 C          66.7661   94.9482   10.8658 C.3     1  UNL1        0.0328
     14 C          65.9799   93.1592   12.6896 C.ar    1  UNL1        0.0341
     15 C          66.7668   93.4906   13.9229 C.ar    1  UNL1        0.0157
     16 C          66.5820   92.6793   15.1709 C.ar    1  UNL1        0.0769
     17 CL         67.3689   93.0107   16.4043 Cl      1  UNL1       -0.0806
     18 C          65.6105   91.5366   15.1857 C.ar    1  UNL1        0.1119
     19 N          64.8236   91.2052   13.9524 N.ar    1  UNL1       -0.2243
     20 C          65.0083   92.0165   12.7044 C.ar    1  UNL1        0.1635
     21 C          58.8843   86.7654    7.7500 C.3     1  UNL1        0.2525
     22 O          59.2201   86.9208    9.2037 O.3     1  UNL1       -0.4702
     23 N          62.1359   86.2349    9.0385 N.pl3   1  UNL1       -0.3316
     24 H          62.0910   86.0377    8.0750 H       1  UNL1        0.1469
     25 C          62.6307   85.1911    9.9954 C.3     1  UNL1        0.0719
     26 C          63.5436   84.1032    9.5123 C.3     1  UNL1        0.0368
     27 C          64.0384   83.0593   10.4693 C.3     1  UNL1        0.0738
     28 N          63.6203   83.1035   11.9091 N.3     1  UNL1       -0.2714
     29 C          64.1151   82.0596   12.8661 C.3     1  UNL1        0.0896
     30 C          62.7074   84.1913   12.3921 C.3     1  UNL1        0.0738
     31 C          62.2126   85.2351   11.4353 C.3     1  UNL1        0.0368
@<TRIPOS>BOND
     1    21    22    1
     2    22     1    1
     3     1     2   ar
     4     2     3   ar
     5     3     4   ar
     6     4     7    1
     7     7     8    2
     8     7     9    2
     9     7    10    1
    10    10    11   ar
    11    11    12   ar
    12    12    13    1
    13    12    14   ar
    14    14    15   ar
    15    15    16   ar
    16    16    17    1
    17    16    18   ar
    18    18    19   ar
    19    19    20   ar
    20     4     5   ar
    21     5     6   ar
    22     6    23    1
    23    23    25    1
    24    25    26    1
    25    26    27    1
    26    27    28    1
    27    28    29    1
    28    28    30    1
    29    30    31    1
    30     6     1   ar
    31    31    25    1
    32    20    10   ar
    33    20    14   ar
    34    23    24    1
@<TRIPOS>MOLECULE
*****
 31 34 0 0 0
SMALL
GASTEIGER

@<TRIPOS>ATOM
      1 C          65.0568   90.8051   14.2419 C.ar    1  UNL1        0.1518
      2 C          64.4669   89.4295   14.3403 C.ar    1  UNL1        0.0396
      3 C          63.5977   88.9055   13.2358 C.ar    1  UNL1        0.0236
      4 C          63.3184   89.7571   12.0330 C.ar    1  UNL1        0.1291
      5 C          63.9083   91.1327   11.9347 C.ar    1  UNL1        0.0378
      6 C          64.7775   91.6567   13.0390 C.ar    1  UNL1        0.0804
      7 S          62.4491   89.2330   10.9286 S.O2    1  UNL1        0.0872
      8 O          62.9002   90.3548   10.0410 O.2     1  UNL1       -0.1475
      9 O          61.9979   88.1111   11.8162 O.2     1  UNL1       -0.1475
     10 N          61.5798   88.7088    9.8242 N.ar    1  UNL1       -0.1909
     11 C          60.3354   89.3598    9.2972 C.ar    1  UNL1        0.0973
     12 C          59.7889   88.4949    8.2003 C.ar    1  UNL1        0.0001
     13 C          58.5527   88.7676    7.3956 C.3     1  UNL1        0.0328
     14 C          60.6955   87.3095    8.0493 C.ar    1  UNL1        0.0341
     15 C          60.6561   86.1268    7.1276 C.ar    1  UNL1        0.0157
     16 C          61.7236   85.0762    7.2096 C.ar    1  UNL1        0.0769
     17 CL         61.6843   83.8934    6.2878 Cl      1  UNL1       -0.0806
     18 C          62.8305   85.2085    8.2132 C.ar    1  UNL1        0.1119
     19 N          62.8699   86.3912    9.1349 N.ar    1  UNL1       -0.2243
     20 C          61.8023   87.4417    9.0530 C.ar    1  UNL1        0.1635
     21 C          67.3816   91.5910   15.0951 C.3     1  UNL1        0.2525
     22 O          65.9261   91.3292   15.3463 O.3     1  UNL1       -0.4702
     23 N          65.3674   93.0323   12.9407 N.pl3   1  UNL1       -0.3316
     24 H          65.3470   93.6335   13.7200 H       1  UNL1        0.1469
     25 C          65.9885   93.4918   11.6550 C.3     1  UNL1        0.0719
     26 C          65.6930   94.8648   11.1279 C.3     1  UNL1        0.0368
     27 C          66.3141   95.3243    9.8421 C.3     1  UNL1        0.0738
     28 N          67.2306   94.4109    9.0835 N.3     1  UNL1       -0.2714
     29 C          67.8517   94.8703    7.7977 C.3     1  UNL1        0.0896
     30 C          67.5260   93.0379    9.6104 C.3     1  UNL1        0.0738
     31 C          66.9050   92.5784   10.8962 C.3     1  UNL1        0.0368
@<TRIPOS>BOND
     1    21    22    1
     2    22     1    1
     3     1     2   ar
     4     2     3   ar
     5     3     4   ar
     6     4     7    1
     7     7     8    2
     8     7     9    2
     9     7    10    1
    10    10    11   ar
    11    11    12   ar
    12    12    13    1
    13    12    14   ar
    14    14    15   ar
    15    15    16   ar
    16    16    17    1
    17    16    18   ar
    18    18    19   ar
    19    19    20   ar
    20     4     5   ar
    21     5     6   ar
    22     6    23    1
    23    23    25    1
    24    25    26    1
    25    26    27    1
    26    27    28    1
    27    28    29    1
    28    28    30    1
    29    30    31    1
    30     6     1   ar
    31    31    25    1
    32    20    10   ar
    33    20    14   ar
    34    23    24    1
@<TRIPOS>MOLECULE
*****
 31 34 0 0 0
SMALL
GASTEIGER

@<TRIPOS>ATOM
      1 C          66.9101   92.3541   14.0857 C.ar    1  UNL1        0.1518
      2 C          65.9420   91.8226   15.1006 C.ar    1  UNL1        0.0396
      3 C          64.6674   91.1711   14.6522 C.ar    1  UNL1        0.0236
      4 C          64.3609   91.0512   13.1887 C.ar    1  UNL1        0.1291
      5 C          65.3290   91.5828   12.1738 C.ar    1  UNL1        0.0378
      6 C          66.6035   92.2342   12.6222 C.ar    1  UNL1        0.0804
      7 S          63.0863   90.3998   12.7404 S.O2    1  UNL1        0.0872
      8 O          63.1616   91.1462   11.4416 O.2     1  UNL1       -0.1475
      9 O          63.0111   89.6533   14.0392 O.2     1  UNL1       -0.1475
     10 N          61.8117   89.7482   12.2921 N.ar    1  UNL1       -0.1909
     11 C          60.4588   89.9393   12.9110 C.ar    1  UNL1        0.0973
     12 C          59.4773   89.1004   12.1475 C.ar    1  UNL1        0.0001
     13 C          58.0074   88.9904   12.4259 C.3     1  UNL1        0.0328
     14 C          60.2236   88.3909   11.0568 C.ar    1  UNL1        0.0341
     15 C          59.7757   87.4319    9.9939 C.ar    1  UNL1        0.0157
     16 C          60.7707   86.8734    9.0203 C.ar    1  UNL1        0.0769
     17 CL         60.3230   85.9144    7.9573 Cl      1  UNL1       -0.0806
     18 C          62.2136   87.2738    9.1096 C.ar    1  UNL1        0.1119
     19 N          62.6614   88.2327   10.1726 N.ar    1  UNL1       -0.2243
     20 C          61.6664   88.7913   11.1462 C.ar    1  UNL1        0.1635
     21 C          68.7201   92.7381   15.9094 C.3     1  UNL1        0.2525
     22 O          68.1846   93.0056   14.5340 O.3     1  UNL1       -0.4702
     23 N          67.5716   92.7658   11.6072 N.pl3   1  UNL1       -0.3316
     24 H          68.5019   92.4436   11.5982 H       1  UNL1        0.1469
     25 C          67.1224   93.7882   10.6058 C.3     1  UNL1        0.0719
     26 C          66.1361   94.8458   11.0046 C.3     1  UNL1        0.0368
     27 C          65.6869   95.8683   10.0032 C.3     1  UNL1        0.0738
     28 N          66.2239   95.8331    8.6031 N.3     1  UNL1       -0.2714
     29 C          65.7747   96.8556    7.6016 C.3     1  UNL1        0.0896
     30 C          67.2101   94.7756    8.2043 C.3     1  UNL1        0.0738
     31 C          67.6593   93.7532    9.2056 C.3     1  UNL1        0.0368
@<TRIPOS>BOND
     1    21    22    1
     2    22     1    1
     3     1     2   ar
     4     2     3   ar
     5     3     4   ar
     6     4     7    1
     7     7     8    2
     8     7     9    2
     9     7    10    1
    10    10    11   ar
    11    11    12   ar
    12    12    13    1
    13    12    14   ar
    14    14    15   ar
    15    15    16   ar
    16    16    17    1
    17    16    18   ar
    18    18    19   ar
    19    19    20   ar
    20     4     5   ar
    21     5     6   ar
    22     6    23    1
    23    23    25    1
    24    25    26    1
    25    26    27    1
    26    27    28    1
    27    28    29    1
    28    28    30    1
    29    30    31    1
    30     6     1   ar
    31    31    25    1
    32    20    10   ar
    33    20    14   ar
    34    23    24    1
@<TRIPOS>MOLECULE
*****
 31 34 0 0 0
SMALL
GASTEIGER

@<TRIPOS>ATOM
      1 C          60.3608   87.5975    9.5862 C.ar    1  UNL1        0.1518
      2 C          59.8985   88.9301   10.0963 C.ar    1  UNL1        0.0396
      3 C          60.8666   89.8471   10.7833 C.ar    1  UNL1        0.0236
      4 C          62.2969   89.4315   10.9601 C.ar    1  UNL1        0.1291
      5 C          62.7592   88.0988   10.4500 C.ar    1  UNL1        0.0378
      6 C          61.7912   87.1818    9.7630 C.ar    1  UNL1        0.0804
      7 S          63.2650   90.3486   11.6471 S.O2    1  UNL1        0.0872
      8 O          63.0271   91.3892   10.5934 O.2     1  UNL1       -0.1475
      9 O          63.5029   89.3079   12.7009 O.2     1  UNL1       -0.1475
     10 N          64.2330   91.2656   12.3342 N.ar    1  UNL1       -0.1909
     11 C          64.7468   91.1155   13.7354 C.ar    1  UNL1        0.0973
     12 C          65.6885   92.2509   14.0078 C.ar    1  UNL1        0.0001
     13 C          66.4316   92.4921   15.2883 C.3     1  UNL1        0.0328
     14 C          65.7567   93.1026   12.7750 C.ar    1  UNL1        0.0341
     15 C          66.5217   94.3539   12.4606 C.ar    1  UNL1        0.0157
     16 C          66.3871   94.9963   11.1119 C.ar    1  UNL1        0.0769
     17 CL         67.1521   96.2478   10.7974 Cl      1  UNL1       -0.0806
     18 C          65.4875   94.3874   10.0775 C.ar    1  UNL1        0.1119
     19 N          64.7225   93.1360   10.3918 N.ar    1  UNL1       -0.2243
     20 C          64.8571   92.4936   11.7406 C.ar    1  UNL1        0.1635
     21 C          59.0128   86.9262    7.4691 C.3     1  UNL1        0.2525
     22 O          59.3928   86.6804    8.8992 O.3     1  UNL1       -0.4702
     23 N          62.2535   85.8492    9.2529 N.pl3   1  UNL1       -0.3316
     24 H          62.2472   85.6630    8.2862 H       1  UNL1        0.1469
     25 C          62.7253   84.8002   10.2157 C.3     1  UNL1        0.0719
     26 C          63.6149   83.6903    9.7390 C.3     1  UNL1        0.0368
     27 C          64.0867   82.6413   10.7019 C.3     1  UNL1        0.0738
     28 N          63.6690   82.7021   12.1412 N.3     1  UNL1       -0.2714
     29 C          64.1408   81.6531   13.1041 C.3     1  UNL1        0.0896
     30 C          62.7795   83.8119   12.6179 C.3     1  UNL1        0.0738
     31 C          62.3077   84.8609   11.6551 C.3     1  UNL1        0.0368
@<TRIPOS>BOND
     1    21    22    1
     2    22     1    1
     3     1     2   ar
     4     2     3   ar
     5     3     4   ar
     6     4     7    1
     7     7     8    2
     8     7     9    2
     9     7    10    1
    10    10    11   ar
    11    11    12   ar
    12    12    13    1
    13    12    14   ar
    14    14    15   ar
    15    15    16   ar
    16    16    17    1
    17    16    18   ar
    18    18    19   ar
    19    19    20   ar
    20     4     5   ar
    21     5     6   ar
    22     6    23    1
    23    23    25    1
    24    25    26    1
    25    26    27    1
    26    27    28    1
    27    28    29    1
    28    28    30    1
    29    30    31    1
    30     6     1   ar
    31    31    25    1
    32    20    10   ar
    33    20    14   ar
    34    23    24    1
@<TRIPOS>MOLECULE
*****
 31 34 0 0 0
SMALL
GASTEIGER

@<TRIPOS>ATOM
      1 C          64.7083   90.4370   14.2521 C.ar    1  UNL1        0.1518
      2 C          64.3253   91.3894   13.1584 C.ar    1  UNL1        0.0396
      3 C          63.4976   90.9105   12.0027 C.ar    1  UNL1        0.0236
      4 C          63.0530   89.4793   11.9406 C.ar    1  UNL1        0.1291
      5 C          63.4360   88.5269   13.0343 C.ar    1  UNL1        0.0378
      6 C          64.2637   89.0057   14.1900 C.ar    1  UNL1        0.0804
      7 S          62.2253   89.0005   10.7848 S.O2    1  UNL1        0.0872
      8 O          61.7151   87.8644   11.6207 O.2     1  UNL1       -0.1475
      9 O          62.7356   90.1367    9.9489 O.2     1  UNL1       -0.1475
     10 N          61.3977   88.5219    9.6290 N.ar    1  UNL1       -0.1909
     11 C          60.1941   89.2132    9.0603 C.ar    1  UNL1        0.0973
     12 C          59.6809   88.3864    7.9188 C.ar    1  UNL1        0.0001
     13 C          58.4904   88.7058    7.0641 C.3     1  UNL1        0.0328
     14 C          60.5673   87.1840    7.7820 C.ar    1  UNL1        0.0341
     15 C          60.5454   86.0238    6.8316 C.ar    1  UNL1        0.0157
     16 C          61.5845   84.9474    6.9381 C.ar    1  UNL1        0.0769
     17 CL         61.5627   83.7871    5.9877 Cl      1  UNL1       -0.0806
     18 C          62.6456   85.0311    7.9951 C.ar    1  UNL1        0.1119
     19 N          62.6675   86.1913    8.9456 N.ar    1  UNL1       -0.2243
     20 C          61.6284   87.2678    8.8390 C.ar    1  UNL1        0.1635
     21 C          66.2354   92.2405   15.3316 C.3     1  UNL1        0.2525
     22 O          65.5359   90.9157   15.4078 O.3     1  UNL1       -0.4702
     23 N          64.6467   88.0533   15.2837 N.pl3   1  UNL1       -0.3316
     24 H          65.1352   88.3810   16.0731 H       1  UNL1        0.1469
     25 C          64.2856   86.6015   15.1745 C.3     1  UNL1        0.0719
     26 C          65.0576   85.7037   14.2535 C.3     1  UNL1        0.0368
     27 C          64.6964   84.2519   14.1444 C.3     1  UNL1        0.0738
     28 N          63.5633   83.6979   14.9562 N.3     1  UNL1       -0.2714
     29 C          63.2021   82.2461   14.8471 C.3     1  UNL1        0.0896
     30 C          62.7913   84.5956   15.8771 C.3     1  UNL1        0.0738
     31 C          63.1524   86.0474   15.9863 C.3     1  UNL1        0.0368
@<TRIPOS>BOND
     1    21    22    1
     2    22     1    1
     3     1     2   ar
     4     2     3   ar
     5     3     4   ar
     6     4     7    1
     7     7     8    2
     8     7     9    2
     9     7    10    1
    10    10    11   ar
    11    11    12   ar
    12    12    13    1
    13    12    14   ar
    14    14    15   ar
    15    15    16   ar
    16    16    17    1
    17    16    18   ar
    18    18    19   ar
    19    19    20   ar
    20     4     5   ar
    21     5     6   ar
    22     6    23    1
    23    23    25    1
    24    25    26    1
    25    26    27    1
    26    27    28    1
    27    28    29    1
    28    28    30    1
    29    30    31    1
    30     6     1   ar
    31    31    25    1
    32    20    10   ar
    33    20    14   ar
    34    23    24    1
@<TRIPOS>MOLECULE
*****
 31 34 0 0 0
SMALL
GASTEIGER

@<TRIPOS>ATOM
      1 C          65.1342   91.9303   15.1551 C.ar    1  UNL1        0.1518
      2 C          64.4849   90.7436   15.8034 C.ar    1  UNL1        0.0396
      3 C          63.8800   89.6636   14.9562 C.ar    1  UNL1        0.0236
      4 C          63.9244   89.7703   13.4607 C.ar    1  UNL1        0.1291
      5 C          64.5737   90.9569   12.8124 C.ar    1  UNL1        0.0378
      6 C          65.1785   92.0368   13.6595 C.ar    1  UNL1        0.0804
      7 S          63.3195   88.6902   12.6135 S.O2    1  UNL1        0.0872
      8 O          63.0494   89.6914   11.5299 O.2     1  UNL1       -0.1475
      9 O          63.5897   87.6890   13.6973 O.2     1  UNL1       -0.1475
     10 N          62.7146   87.6101   11.7665 N.ar    1  UNL1       -0.1909
     11 C          61.8512   87.8173   10.5576 C.ar    1  UNL1        0.0973
     12 C          61.4699   86.4684   10.0236 C.ar    1  UNL1        0.0001
     13 C          60.6116   86.2064    8.8217 C.3     1  UNL1        0.0328
     14 C          62.0978   85.4276   10.9025 C.ar    1  UNL1        0.0341
     15 C          62.0684   83.9285   10.8611 C.ar    1  UNL1        0.0157
     16 C          62.8082   83.1350   11.8969 C.ar    1  UNL1        0.0769
     17 CL         62.7789   81.6358   11.8555 Cl      1  UNL1       -0.0806
     18 C          63.5775   83.8406   12.9741 C.ar    1  UNL1        0.1119
     19 N          63.6069   85.3397   13.0155 N.ar    1  UNL1       -0.2243
     20 C          62.8670   86.1332   11.9797 C.ar    1  UNL1        0.1635
     21 C          67.2262   93.0729   16.1885 C.3     1  UNL1        0.2525
     22 O          65.7390   93.0103   16.0022 O.3     1  UNL1       -0.4702
     23 N          65.8278   93.2235   13.0112 N.pl3   1  UNL1       -0.3316
     24 H          65.7181   94.1199   13.4032 H       1  UNL1        0.1469
     25 C          66.6442   93.0443   11.7657 C.3     1  UNL1        0.0719
     26 C          67.7184   91.9983   11.7169 C.3     1  UNL1        0.0368
     27 C          68.5348   91.8191   10.4713 C.3     1  UNL1        0.0738
     28 N          68.2770   92.6859    9.2746 N.3     1  UNL1       -0.2714
     29 C          69.0934   92.5068    8.0290 C.3     1  UNL1        0.0896
     30 C          67.2029   93.7318    9.3233 C.3     1  UNL1        0.0738
     31 C          66.3866   93.9110   10.5688 C.3     1  UNL1        0.0368
@<TRIPOS>BOND
     1    21    22    1
     2    22     1    1
     3     1     2   ar
     4     2     3   ar
     5     3     4   ar
     6     4     7    1
     7     7     8    2
     8     7     9    2
     9     7    10    1
    10    10    11   ar
    11    11    12   ar
    12    12    13    1
    13    12    14   ar
    14    14    15   ar
    15    15    16   ar
    16    16    17    1
    17    16    18   ar
    18    18    19   ar
    19    19    20   ar
    20     4     5   ar
    21     5     6   ar
    22     6    23    1
    23    23    25    1
    24    25    26    1
    25    26    27    1
    26    27    28    1
    27    28    29    1
    28    28    30    1
    29    30    31    1
    30     6     1   ar
    31    31    25    1
    32    20    10   ar
    33    20    14   ar
    34    23    24    1
@<TRIPOS>MOLECULE
*****
 31 34 0 0 0
SMALL
GASTEIGER

@<TRIPOS>ATOM
      1 C          60.6940   88.4414    9.5040 C.ar    1  UNL1        0.1518
      2 C          60.2687   89.7355   10.1319 C.ar    1  UNL1        0.0396
      3 C          61.0835   90.3352   11.2394 C.ar    1  UNL1        0.0236
      4 C          62.3235   89.6408   11.7190 C.ar    1  UNL1        0.1291
      5 C          62.7488   88.3466   11.0911 C.ar    1  UNL1        0.0378
      6 C          61.9341   87.7469    9.9837 C.ar    1  UNL1        0.0804
      7 S          63.1382   90.2405   12.8265 S.O2    1  UNL1        0.0872
      8 O          63.0820   88.9403   13.5721 O.2     1  UNL1       -0.1475
      9 O          63.1945   91.5409   12.0808 O.2     1  UNL1       -0.1475
     10 N          63.9529   90.8404   13.9340 N.ar    1  UNL1       -0.1909
     11 C          63.4865   91.0861   15.3383 C.ar    1  UNL1        0.0973
     12 C          64.6224   91.6974   16.1037 C.ar    1  UNL1        0.0001
     13 C          64.5947   92.1050   17.5470 C.3     1  UNL1        0.0328
     14 C          65.7909   91.8296   15.1725 C.ar    1  UNL1        0.0341
     15 C          67.1782   92.3638   15.3724 C.ar    1  UNL1        0.0157
     16 C          68.1517   92.3683   14.2313 C.ar    1  UNL1        0.0769
     17 CL         69.5391   92.9026   14.4311 Cl      1  UNL1       -0.0806
     18 C          67.7380   91.8387   12.8903 C.ar    1  UNL1        0.1119
     19 N          66.3507   91.3045   12.6904 N.ar    1  UNL1       -0.2243
     20 C          65.3771   91.2999   13.8315 C.ar    1  UNL1        0.1635
     21 C          59.3701   88.7104    7.2849 C.3     1  UNL1        0.2525
     22 O          59.8794   87.8416    8.3965 O.3     1  UNL1       -0.4702
     23 N          62.3594   86.4527    9.3558 N.pl3   1  UNL1       -0.3316
     24 H          62.3919   86.3685    8.3755 H       1  UNL1        0.1469
     25 C          62.7351   85.2869   10.2216 C.3     1  UNL1        0.0719
     26 C          63.5804   84.1802    9.6640 C.3     1  UNL1        0.0368
     27 C          63.9561   83.0143   10.5299 C.3     1  UNL1        0.0738
     28 N          63.4865   82.9552   11.9532 N.3     1  UNL1       -0.2714
     29 C          63.8622   81.7893   12.8191 C.3     1  UNL1        0.0896
     30 C          62.6412   84.0618   12.5108 C.3     1  UNL1        0.0738
     31 C          62.2655   85.2277   11.6450 C.3     1  UNL1        0.0368
@<TRIPOS>BOND
     1    21    22    1
     2    22     1    1
     3     1     2   ar
     4     2     3   ar
     5     3     4   ar
     6     4     7    1
     7     7     8    2
     8     7     9    2
     9     7    10    1
    10    10    11   ar
    11    11    12   ar
    12    12    13    1
    13    12    14   ar
    14    14    15   ar
    15    15    16   ar
    16    16    17    1
    17    16    18   ar
    18    18    19   ar
    19    19    20   ar
    20     4     5   ar
    21     5     6   ar
    22     6    23    1
    23    23    25    1
    24    25    26    1
    25    26    27    1
    26    27    28    1
    27    28    29    1
    28    28    30    1
    29    30    31    1
    30     6     1   ar
    31    31    25    1
    32    20    10   ar
    33    20    14   ar
    34    23    24    1
@<TRIPOS>MOLECULE
*****
 31 34 0 0 0
SMALL
GASTEIGER

@<TRIPOS>ATOM
      1 C          65.1550   91.9241   15.1488 C.ar    1  UNL1        0.1518
      2 C          64.5508   90.7294   15.8251 C.ar    1  UNL1        0.0396
      3 C          63.9589   89.6223   15.0041 C.ar    1  UNL1        0.0236
      4 C          63.9713   89.7099   13.5067 C.ar    1  UNL1        0.1291
      5 C          64.5755   90.9047   12.8304 C.ar    1  UNL1        0.0378
      6 C          65.1673   92.0117   13.6513 C.ar    1  UNL1        0.0804
      7 S          63.3794   88.6028   12.6858 S.O2    1  UNL1        0.0872
      8 O          63.0272   89.5879   11.6110 O.2     1  UNL1       -0.1475
      9 O          63.7316   87.6176   13.7607 O.2     1  UNL1       -0.1475
     10 N          62.7875   87.4956   11.8649 N.ar    1  UNL1       -0.1909
     11 C          63.0765   86.0318   12.0198 C.ar    1  UNL1        0.0973
     12 C          62.2703   85.2894   10.9957 C.ar    1  UNL1        0.0001
     13 C          62.2542   83.8030   10.7946 C.3     1  UNL1        0.0328
     14 C          61.4831   86.2942   10.2079 C.ar    1  UNL1        0.0341
     15 C          60.5166   86.1438    9.0707 C.ar    1  UNL1        0.0157
     16 C          59.8697   87.3569    8.4708 C.ar    1  UNL1        0.0769
     17 CL         58.9031   87.2065    7.3336 Cl      1  UNL1       -0.0806
     18 C          60.1894   88.7204    9.0081 C.ar    1  UNL1        0.1119
     19 N          61.1559   88.8709   10.1452 N.ar    1  UNL1       -0.2243
     20 C          61.8028   87.6578   10.7451 C.ar    1  UNL1        0.1635
     21 C          67.2316   93.1046   16.1706 C.3     1  UNL1        0.2525
     22 O          65.7469   93.0313   15.9696 O.3     1  UNL1       -0.4702
     23 N          65.7715   93.2065   12.9749 N.pl3   1  UNL1       -0.3316
     24 H          65.6221   94.1078   13.3418 H       1  UNL1        0.1469
     25 C          66.6035   93.0280   11.7397 C.3     1  UNL1        0.0719
     26 C          67.6416   91.9465   11.6843 C.3     1  UNL1        0.0368
     27 C          68.4736   91.7681   10.4489 C.3     1  UNL1        0.0738
     28 N          68.2674   92.6710    9.2691 N.3     1  UNL1       -0.2714
     29 C          69.0994   92.4926    8.0337 C.3     1  UNL1        0.0896
     30 C          67.2294   93.7524    9.3244 C.3     1  UNL1        0.0738
     31 C          66.3975   93.9309   10.5597 C.3     1  UNL1        0.0368
@<TRIPOS>BOND
     1    21    22    1
     2    22     1    1
     3     1     2   ar
     4     2     3   ar
     5     3     4   ar
     6     4     7    1
     7     7     8    2
     8     7     9    2
     9     7    10    1
    10    10    11   ar
    11    11    12   ar
    12    12    13    1
    13    12    14   ar
    14    14    15   ar
    15    15    16   ar
    16    16    17    1
    17    16    18   ar
    18    18    19   ar
    19    19    20   ar
    20     4     5   ar
    21     5     6   ar
    22     6    23    1
    23    23    25    1
    24    25    26    1
    25    26    27    1
    26    27    28    1
    27    28    29    1
    28    28    30    1
    29    30    31    1
    30     6     1   ar
    31    31    25    1
    32    20    10   ar
    33    20    14   ar
    34    23    24    1
@<TRIPOS>MOLECULE
*****
 31 34 0 0 0
SMALL
GASTEIGER

@<TRIPOS>ATOM
      1 C          60.4371   86.5723    8.0324 C.ar    1  UNL1        0.1518
      2 C          61.5806   86.0251    8.8342 C.ar    1  UNL1        0.0396
      3 C          62.2624   86.8885    9.8540 C.ar    1  UNL1        0.0236
      4 C          61.8008   88.2989   10.0718 C.ar    1  UNL1        0.1291
      5 C          60.6573   88.8461    9.2699 C.ar    1  UNL1        0.0378
      6 C          59.9755   87.9828    8.2503 C.ar    1  UNL1        0.0804
      7 S          62.4827   89.1622   11.0916 S.O2    1  UNL1        0.0872
      8 O          62.9763   87.9356   11.7999 O.2     1  UNL1       -0.1475
      9 O          61.9891   90.3888   10.3831 O.2     1  UNL1       -0.1475
     10 N          63.1646   90.0255   12.1112 N.ar    1  UNL1       -0.1909
     11 C          63.0921   89.8563   13.5999 C.ar    1  UNL1        0.0973
     12 C          63.9214   90.9358   14.2299 C.ar    1  UNL1        0.0001
     13 C          64.1291   91.1428   15.7010 C.3     1  UNL1        0.0328
     14 C          64.5064   91.7721   13.1307 C.ar    1  UNL1        0.0341
     15 C          65.4046   92.9732   13.1529 C.ar    1  UNL1        0.0157
     16 C          65.8351   93.6117   11.8657 C.ar    1  UNL1        0.0769
     17 CL         66.7333   94.8129   11.8878 Cl      1  UNL1       -0.0806
     18 C          65.3674   93.0490   10.5562 C.ar    1  UNL1        0.1119
     19 N          64.4692   91.8479   10.5340 N.ar    1  UNL1       -0.2243
     20 C          64.0387   91.2095   11.8212 C.ar    1  UNL1        0.1635
     21 C          60.5364   84.6657    6.2703 C.3     1  UNL1        0.2525
     22 O          59.7552   85.7091    7.0127 O.3     1  UNL1       -0.4702
     23 N          58.8320   88.5300    7.4484 N.pl3   1  UNL1       -0.3316
     24 H          57.9243   88.1713    7.5773 H       1  UNL1        0.1469
     25 C          59.0715   89.6237    6.4502 C.3     1  UNL1        0.0719
     26 C          57.9281   90.4726    5.9789 C.3     1  UNL1        0.0368
     27 C          58.1677   91.5664    4.9806 C.3     1  UNL1        0.0738
     28 N          59.5506   91.8111    4.4538 N.3     1  UNL1       -0.2714
     29 C          59.7902   92.9049    3.4555 C.3     1  UNL1        0.0896
     30 C          60.6940   90.9623    4.9251 C.3     1  UNL1        0.0738
     31 C          60.4544   89.8686    5.9233 C.3     1  UNL1        0.0368
@<TRIPOS>BOND
     1    21    22    1
     2    22     1    1
     3     1     2   ar
     4     2     3   ar
     5     3     4   ar
     6     4     7    1
     7     7     8    2
     8     7     9    2
     9     7    10    1
    10    10    11   ar
    11    11    12   ar
    12    12    13    1
    13    12    14   ar
    14    14    15   ar
    15    15    16   ar
    16    16    17    1
    17    16    18   ar
    18    18    19   ar
    19    19    20   ar
    20     4     5   ar
    21     5     6   ar
    22     6    23    1
    23    23    25    1
    24    25    26    1
    25    26    27    1
    26    27    28    1
    27    28    29    1
    28    28    30    1
    29    30    31    1
    30     6     1   ar
    31    31    25    1
    32    20    10   ar
    33    20    14   ar
    34    23    24    1
