@<TRIPOS>MOLECULE
*****
 25 27 0 0 0
SMALL
GASTEIGER

@<TRIPOS>ATOM
      1 C          63.1027   86.2707   12.6526 C.ar    1  UNL1        0.1821
      2 O          63.7753   87.2801   13.5349 O.2     1  UNL1       -0.4500
      3 C          63.7704   88.7310   13.1538 C.ar    1  UNL1        0.1545
      4 C          64.4430   89.7404   14.0362 C.ar    1  UNL1        0.0744
      5 C          64.4382   91.1911   13.6550 C.ar    1  UNL1        0.1397
      6 O          65.1107   92.2007   14.5374 O.3     1  UNL1       -0.5053
      7 C          63.7608   91.6324   12.3916 C.ar    1  UNL1        0.0735
      8 C          63.0882   90.6230   11.5092 C.ar    1  UNL1        0.1428
      9 O          62.4108   91.0642   10.2457 O.3     1  UNL1       -0.5052
     10 C          63.0930   89.1722   11.8903 C.ar    1  UNL1        0.1104
     11 C          62.4205   88.1627   11.0079 C.ar    1  UNL1        0.2381
     12 O          61.7431   88.6040    9.7445 O.2     1  UNL1       -0.2830
     13 C          62.4253   86.7119   11.3891 C.ar    1  UNL1        0.2119
     14 H          65.5339   91.9251   15.3267 H       1  UNL1        0.2922
     15 H          62.4078   91.9705   10.0076 H       1  UNL1        0.2922
     16 C          63.1171   81.9184   13.7959 C.ar    1  UNL1        0.1387
     17 C          63.8534   82.3746   12.5713 C.ar    1  UNL1        0.0370
     18 C          63.8487   83.8253   12.1902 C.ar    1  UNL1        0.0062
     19 C          63.1075   84.8199   13.0337 C.ar    1  UNL1        0.0379
     20 C          62.3711   84.3637   14.2583 C.ar    1  UNL1        0.0062
     21 C          62.3759   82.9129   14.6394 C.ar    1  UNL1        0.0370
     22 C          62.3211   79.4803   13.3809 C.3     1  UNL1        0.2525
     23 O          63.1219   80.4676   14.1771 O.3     1  UNL1       -0.4714
     24 O          61.7527   85.7024   10.5067 O.3     1  UNL1       -0.4653
     25 C          62.3560   85.3451    9.1807 C.3     1  UNL1        0.2528
@<TRIPOS>BOND
     1    22    23    1
     2    23    16    1
     3    16    17   ar
     4    17    18   ar
     5    18    19   ar
     6    19     1    1
     7     1     2   ar
     8     2     3   ar
     9     3     4   ar
    10     4     5   ar
    11     5     6    1
    12     5     7   ar
    13     7     8   ar
    14     8     9    1
    15     8    10   ar
    16    10    11   ar
    17    11    12    2
    18    11    13   ar
    19    13    24    1
    20    24    25    1
    21    19    20   ar
    22    20    21   ar
    23    21    16   ar
    24    13     1   ar
    25    10     3   ar
    26     6    14    1
    27     9    15    1
@<TRIPOS>MOLECULE
*****
 25 27 0 0 0
SMALL
GASTEIGER

@<TRIPOS>ATOM
      1 C          63.4079   90.3574   11.5686 C.ar    1  UNL1        0.1821
      2 O          63.9752   91.5079   10.7912 O.2     1  UNL1       -0.4500
      3 C          64.8718   92.5016   11.4687 C.ar    1  UNL1        0.1545
      4 C          65.4391   93.6520   10.6912 C.ar    1  UNL1        0.0744
      5 C          66.3356   94.6456   11.3687 C.ar    1  UNL1        0.1397
      6 O          66.9029   95.7961   10.5912 O.3     1  UNL1       -0.5053
      7 C          66.6648   94.4887   12.8237 C.ar    1  UNL1        0.0735
      8 C          66.0975   93.3382   13.6012 C.ar    1  UNL1        0.1428
      9 O          66.4267   93.1813   15.0561 O.3     1  UNL1       -0.5052
     10 C          65.2010   92.3447   12.9236 C.ar    1  UNL1        0.1104
     11 C          64.6336   91.1941   13.7011 C.ar    1  UNL1        0.2381
     12 O          64.9628   91.0372   15.1561 O.2     1  UNL1       -0.2830
     13 C          63.7371   90.2005   13.0236 C.ar    1  UNL1        0.2119
     14 H          66.6973   95.8942    9.6823 H       1  UNL1        0.2922
     15 H          66.9867   93.8020   15.4794 H       1  UNL1        0.2922
     16 C          60.7183   87.3767    9.5362 C.ar    1  UNL1        0.1387
     17 C          61.7739   86.9049   10.4918 C.ar    1  UNL1        0.0370
     18 C          62.6704   87.8984   11.1693 C.ar    1  UNL1        0.0062
     19 C          62.5114   89.3638   10.8911 C.ar    1  UNL1        0.0379
     20 C          61.4558   89.8356    9.9355 C.ar    1  UNL1        0.0062
     21 C          60.5593   88.8420    9.2580 C.ar    1  UNL1        0.0370
     22 C          59.0394   86.7851    7.6437 C.3     1  UNL1        0.2525
     23 O          59.8218   86.3830    8.8587 O.3     1  UNL1       -0.4714
     24 O          63.1698   89.0500   13.8011 O.3     1  UNL1       -0.4653
     25 C          64.0880   88.0431   14.4281 C.3     1  UNL1        0.2528
@<TRIPOS>BOND
     1    22    23    1
     2    23    16    1
     3    16    17   ar
     4    17    18   ar
     5    18    19   ar
     6    19     1    1
     7     1     2   ar
     8     2     3   ar
     9     3     4   ar
    10     4     5   ar
    11     5     6    1
    12     5     7   ar
    13     7     8   ar
    14     8     9    1
    15     8    10   ar
    16    10    11   ar
    17    11    12    2
    18    11    13   ar
    19    13    24    1
    20    24    25    1
    21    19    20   ar
    22    20    21   ar
    23    21    16   ar
    24    13     1   ar
    25    10     3   ar
    26     6    14    1
    27     9    15    1
@<TRIPOS>MOLECULE
*****
 25 27 0 0 0
SMALL
GASTEIGER

@<TRIPOS>ATOM
      1 C          61.9070   85.8435   10.2711 C.ar    1  UNL1        0.1821
      2 O          61.6262   85.6609   11.7332 O.2     1  UNL1       -0.4500
      3 C          62.3901   84.6387   12.5217 C.ar    1  UNL1        0.1545
      4 C          62.1093   84.4561   13.9838 C.ar    1  UNL1        0.0744
      5 C          62.8732   83.4340   14.7722 C.ar    1  UNL1        0.1397
      6 O          62.5925   83.2513   16.2344 O.3     1  UNL1       -0.5053
      7 C          63.9180   82.5945   14.0985 C.ar    1  UNL1        0.0735
      8 C          64.1987   82.7771   12.6364 C.ar    1  UNL1        0.1428
      9 O          65.2435   81.9376   11.9628 O.3     1  UNL1       -0.5052
     10 C          63.4348   83.7993   11.8480 C.ar    1  UNL1        0.1104
     11 C          63.7156   83.9819   10.3858 C.ar    1  UNL1        0.2381
     12 O          64.7603   83.1424    9.7122 O.2     1  UNL1       -0.2830
     13 C          62.9517   85.0040    9.5974 C.ar    1  UNL1        0.2119
     14 H          61.9399   83.7757   16.6552 H       1  UNL1        0.2922
     15 H          65.7207   81.2992   12.4553 H       1  UNL1        0.2922
     16 C          59.6153   88.9100    7.9057 C.ar    1  UNL1        0.1387
     17 C          59.3285   87.4497    7.7174 C.ar    1  UNL1        0.0370
     18 C          60.0923   86.4276    8.5058 C.ar    1  UNL1        0.0062
     19 C          61.1430   86.8657    9.4826 C.ar    1  UNL1        0.0379
     20 C          61.4298   88.3259    9.6709 C.ar    1  UNL1        0.0062
     21 C          60.6659   89.3481    8.8825 C.ar    1  UNL1        0.0370
     22 C          59.2474   90.2380    5.7032 C.3     1  UNL1        0.2525
     23 O          58.8513   89.9321    7.1172 O.3     1  UNL1       -0.4714
     24 O          63.2324   85.1867    8.1352 O.3     1  UNL1       -0.4653
     25 C          62.4170   84.4465    7.1168 C.3     1  UNL1        0.2528
@<TRIPOS>BOND
     1    22    23    1
     2    23    16    1
     3    16    17   ar
     4    17    18   ar
     5    18    19   ar
     6    19     1    1
     7     1     2   ar
     8     2     3   ar
     9     3     4   ar
    10     4     5   ar
    11     5     6    1
    12     5     7   ar
    13     7     8   ar
    14     8     9    1
    15     8    10   ar
    16    10    11   ar
    17    11    12    2
    18    11    13   ar
    19    13    24    1
    20    24    25    1
    21    19    20   ar
    22    20    21   ar
    23    21    16   ar
    24    13     1   ar
    25    10     3   ar
    26     6    14    1
    27     9    15    1
@<TRIPOS>MOLECULE
*****
 25 27 0 0 0
SMALL
GASTEIGER

@<TRIPOS>ATOM
      1 C          61.9662   86.4818   11.1757 C.ar    1  UNL1        0.1821
      2 O          61.9303   84.9989   11.3983 O.2     1  UNL1       -0.4500
      3 C          62.7005   84.3919   12.5335 C.ar    1  UNL1        0.1545
      4 C          62.6645   82.9090   12.7560 C.ar    1  UNL1        0.0744
      5 C          63.4347   82.3021   13.8912 C.ar    1  UNL1        0.1397
      6 O          63.3988   80.8191   14.1138 O.3     1  UNL1       -0.5053
      7 C          64.2408   83.1782   14.8037 C.ar    1  UNL1        0.0735
      8 C          64.2767   84.6611   14.5811 C.ar    1  UNL1        0.1428
      9 O          65.0828   85.5372   15.4937 O.3     1  UNL1       -0.5052
     10 C          63.5066   85.2680   13.4460 C.ar    1  UNL1        0.1104
     11 C          63.5425   86.7510   13.2234 C.ar    1  UNL1        0.2381
     12 O          64.3485   87.6271   14.1359 O.2     1  UNL1       -0.2830
     13 C          62.7723   87.3579   12.0883 C.ar    1  UNL1        0.2119
     14 H          62.8953   80.2719   13.5438 H       1  UNL1        0.2922
     15 H          65.5639   85.1581   16.2028 H       1  UNL1        0.2922
     16 C          59.6557   88.3024    7.7703 C.ar    1  UNL1        0.1387
     17 C          60.1812   89.1751    8.8714 C.ar    1  UNL1        0.0370
     18 C          60.9514   88.5682   10.0065 C.ar    1  UNL1        0.0062
     19 C          61.1960   87.0887   10.0406 C.ar    1  UNL1        0.0379
     20 C          60.6705   86.2161    8.9395 C.ar    1  UNL1        0.0062
     21 C          59.9004   86.8230    7.8044 C.ar    1  UNL1        0.0370
     22 C          59.4189   90.1212    5.9302 C.3     1  UNL1        0.2525
     23 O          58.8855   88.9094    6.6352 O.3     1  UNL1       -0.4714
     24 O          62.8082   88.8409   11.8657 O.3     1  UNL1       -0.4653
     25 C          62.4923   89.7766   12.9947 C.3     1  UNL1        0.2528
@<TRIPOS>BOND
     1    22    23    1
     2    23    16    1
     3    16    17   ar
     4    17    18   ar
     5    18    19   ar
     6    19     1    1
     7     1     2   ar
     8     2     3   ar
     9     3     4   ar
    10     4     5   ar
    11     5     6    1
    12     5     7   ar
    13     7     8   ar
    14     8     9    1
    15     8    10   ar
    16    10    11   ar
    17    11    12    2
    18    11    13   ar
    19    13    24    1
    20    24    25    1
    21    19    20   ar
    22    20    21   ar
    23    21    16   ar
    24    13     1   ar
    25    10     3   ar
    26     6    14    1
    27     9    15    1
@<TRIPOS>MOLECULE
*****
 25 27 0 0 0
SMALL
GASTEIGER

@<TRIPOS>ATOM
      1 C          63.4981   86.0270   13.5078 C.ar    1  UNL1        0.1821
      2 O          63.4965   85.2326   12.2355 O.2     1  UNL1       -0.4500
      3 C          63.2957   83.7467   12.2792 C.ar    1  UNL1        0.1545
      4 C          63.2941   82.9523   11.0069 C.ar    1  UNL1        0.0744
      5 C          63.0933   81.4665   11.0507 C.ar    1  UNL1        0.1397
      6 O          63.0917   80.6720    9.7783 O.3     1  UNL1       -0.5053
      7 C          62.8941   80.7750   12.3669 C.ar    1  UNL1        0.0735
      8 C          62.8957   81.5694   13.6392 C.ar    1  UNL1        0.1428
      9 O          62.6965   80.8780   14.9554 O.3     1  UNL1       -0.5052
     10 C          63.0965   83.0553   13.5954 C.ar    1  UNL1        0.1104
     11 C          63.0981   83.8497   14.8678 C.ar    1  UNL1        0.2381
     12 O          62.8989   83.1583   16.1839 O.2     1  UNL1       -0.2830
     13 C          63.2989   85.3356   14.8240 C.ar    1  UNL1        0.2119
     14 H          63.2161   81.1039    8.9562 H       1  UNL1        0.2922
     15 H          62.5711   79.9498   14.9827 H       1  UNL1        0.2922
     16 C          64.1004   90.4845   13.3766 C.ar    1  UNL1        0.1387
     17 C          63.3417   89.7977   12.2801 C.ar    1  UNL1        0.0370
     18 C          63.1409   88.3118   12.3238 C.ar    1  UNL1        0.0062
     19 C          63.6988   87.5129   13.4641 C.ar    1  UNL1        0.0379
     20 C          64.4576   88.1998   14.5606 C.ar    1  UNL1        0.0062
     21 C          64.6584   89.6856   14.5169 C.ar    1  UNL1        0.0370
     22 C          65.4371   92.5509   12.5436 C.3     1  UNL1        0.2525
     23 O          64.3012   91.9705   13.3329 O.3     1  UNL1       -0.4714
     24 O          63.3005   86.1300   16.0964 O.3     1  UNL1       -0.4653
     25 C          62.0982   86.1122   16.9931 C.3     1  UNL1        0.2528
@<TRIPOS>BOND
     1    22    23    1
     2    23    16    1
     3    16    17   ar
     4    17    18   ar
     5    18    19   ar
     6    19     1    1
     7     1     2   ar
     8     2     3   ar
     9     3     4   ar
    10     4     5   ar
    11     5     6    1
    12     5     7   ar
    13     7     8   ar
    14     8     9    1
    15     8    10   ar
    16    10    11   ar
    17    11    12    2
    18    11    13   ar
    19    13    24    1
    20    24    25    1
    21    19    20   ar
    22    20    21   ar
    23    21    16   ar
    24    13     1   ar
    25    10     3   ar
    26     6    14    1
    27     9    15    1
@<TRIPOS>MOLECULE
*****
 25 27 0 0 0
SMALL
GASTEIGER

@<TRIPOS>ATOM
      1 C          62.9887   85.8316   12.5992 C.ar    1  UNL1        0.1821
      2 O          62.1535   86.2035   11.4101 O.2     1  UNL1       -0.4500
      3 C          62.0185   87.6426   11.0089 C.ar    1  UNL1        0.1545
      4 C          61.1834   88.0145    9.8197 C.ar    1  UNL1        0.0744
      5 C          61.0484   89.4535    9.4185 C.ar    1  UNL1        0.1397
      6 O          60.2133   89.8255    8.2293 O.3     1  UNL1       -0.5053
      7 C          61.7486   90.5206   10.2066 C.ar    1  UNL1        0.0735
      8 C          62.5837   90.1488   11.3957 C.ar    1  UNL1        0.1428
      9 O          63.2839   91.2159   12.1838 O.3     1  UNL1       -0.5052
     10 C          62.7187   88.7097   11.7969 C.ar    1  UNL1        0.1104
     11 C          63.5539   88.3378   12.9861 C.ar    1  UNL1        0.2381
     12 O          64.2540   89.4049   13.7742 O.2     1  UNL1       -0.2830
     13 C          63.6888   86.8988   13.3873 C.ar    1  UNL1        0.2119
     14 H          59.7759   89.1589    7.7370 H       1  UNL1        0.2922
     15 H          63.1996   92.1148   11.9332 H       1  UNL1        0.2922
     16 C          63.3938   81.5145   13.8028 C.ar    1  UNL1        0.1387
     17 C          62.4149   82.4023   14.5125 C.ar    1  UNL1        0.0370
     18 C          62.2799   83.8413   14.1114 C.ar    1  UNL1        0.0062
     19 C          63.1237   84.3926   13.0005 C.ar    1  UNL1        0.0379
     20 C          64.1025   83.5048   12.2907 C.ar    1  UNL1        0.0062
     21 C          64.2375   82.0658   12.6919 C.ar    1  UNL1        0.0370
     22 C          62.5539   79.0586   13.6888 C.3     1  UNL1        0.2525
     23 O          63.5288   80.0755   14.2040 O.3     1  UNL1       -0.4714
     24 O          64.5240   86.5268   14.5765 O.3     1  UNL1       -0.4653
     25 C          63.9107   86.5011   15.9452 C.3     1  UNL1        0.2528
@<TRIPOS>BOND
     1    22    23    1
     2    23    16    1
     3    16    17   ar
     4    17    18   ar
     5    18    19   ar
     6    19     1    1
     7     1     2   ar
     8     2     3   ar
     9     3     4   ar
    10     4     5   ar
    11     5     6    1
    12     5     7   ar
    13     7     8   ar
    14     8     9    1
    15     8    10   ar
    16    10    11   ar
    17    11    12    2
    18    11    13   ar
    19    13    24    1
    20    24    25    1
    21    19    20   ar
    22    20    21   ar
    23    21    16   ar
    24    13     1   ar
    25    10     3   ar
    26     6    14    1
    27     9    15    1
@<TRIPOS>MOLECULE
*****
 25 27 0 0 0
SMALL
GASTEIGER

@<TRIPOS>ATOM
      1 C          63.1782   85.1772   12.3615 C.ar    1  UNL1        0.1821
      2 O          62.6695   86.1266   11.3175 O.2     1  UNL1       -0.4500
      3 C          62.7894   87.6070   11.5277 C.ar    1  UNL1        0.1545
      4 C          62.2807   88.5564   10.4838 C.ar    1  UNL1        0.0744
      5 C          62.4005   90.0367   10.6940 C.ar    1  UNL1        0.1397
      6 O          61.8918   90.9861    9.6501 O.3     1  UNL1       -0.5053
      7 C          63.0291   90.5676   11.9482 C.ar    1  UNL1        0.0735
      8 C          63.5378   89.6182   12.9922 C.ar    1  UNL1        0.1428
      9 O          64.1664   90.1492   14.2463 O.3     1  UNL1       -0.5052
     10 C          63.4180   88.1379   12.7819 C.ar    1  UNL1        0.1104
     11 C          63.9267   87.1885   13.8259 C.ar    1  UNL1        0.2381
     12 O          64.5553   87.7194   15.0801 O.2     1  UNL1       -0.2830
     13 C          63.8068   85.7082   13.6156 C.ar    1  UNL1        0.2119
     14 H          61.4991   90.6545    8.8666 H       1  UNL1        0.2922
     15 H          64.2413   91.0739   14.3777 H       1  UNL1        0.2922
     16 C          62.8187   80.7362   11.7307 C.ar    1  UNL1        0.1387
     17 C          62.2429   81.3677   12.9635 C.ar    1  UNL1        0.0370
     18 C          62.3628   82.8480   13.1737 C.ar    1  UNL1        0.0062
     19 C          63.0584   83.6968   12.1512 C.ar    1  UNL1        0.0379
     20 C          63.6342   83.0653   10.9185 C.ar    1  UNL1        0.0062
     21 C          63.5144   81.5850   10.7082 C.ar    1  UNL1        0.0370
     22 C          62.7708   78.6868   10.1345 C.3     1  UNL1        0.2525
     23 O          62.6989   79.2558   11.5205 O.3     1  UNL1       -0.4714
     24 O          64.3156   84.7587   14.6596 O.3     1  UNL1       -0.4653
     25 C          63.6624   84.7075   16.0090 C.3     1  UNL1        0.2528
@<TRIPOS>BOND
     1    22    23    1
     2    23    16    1
     3    16    17   ar
     4    17    18   ar
     5    18    19   ar
     6    19     1    1
     7     1     2   ar
     8     2     3   ar
     9     3     4   ar
    10     4     5   ar
    11     5     6    1
    12     5     7   ar
    13     7     8   ar
    14     8     9    1
    15     8    10   ar
    16    10    11   ar
    17    11    12    2
    18    11    13   ar
    19    13    24    1
    20    24    25    1
    21    19    20   ar
    22    20    21   ar
    23    21    16   ar
    24    13     1   ar
    25    10     3   ar
    26     6    14    1
    27     9    15    1
@<TRIPOS>MOLECULE
*****
 25 27 0 0 0
SMALL
GASTEIGER

@<TRIPOS>ATOM
      1 C          62.2272   85.7476   11.6393 C.ar    1  UNL1        0.1821
      2 O          61.2377   85.8021   10.5134 O.2     1  UNL1       -0.4500
      3 C          60.9174   87.1134    9.8591 C.ar    1  UNL1        0.1545
      4 C          59.9278   87.1678    8.7332 C.ar    1  UNL1        0.0744
      5 C          59.6076   88.4791    8.0790 C.ar    1  UNL1        0.1397
      6 O          58.6180   88.5336    6.9530 O.3     1  UNL1       -0.5053
      7 C          60.2769   89.7359    8.5507 C.ar    1  UNL1        0.0735
      8 C          61.2665   89.6814    9.6767 C.ar    1  UNL1        0.1428
      9 O          61.9358   90.9382   10.1484 O.3     1  UNL1       -0.5052
     10 C          61.5867   88.3701   10.3309 C.ar    1  UNL1        0.1104
     11 C          62.5763   88.3156   11.4569 C.ar    1  UNL1        0.2381
     12 O          63.2456   89.5724   11.9286 O.2     1  UNL1       -0.2830
     13 C          62.8965   87.0044   12.1111 C.ar    1  UNL1        0.2119
     14 H          58.1999   87.7485    6.6583 H       1  UNL1        0.2922
     15 H          61.7357   91.7573    9.7397 H       1  UNL1        0.2922
     16 C          63.1880   81.8139   13.6021 C.ar    1  UNL1        0.1387
     17 C          63.3850   81.9828   12.1248 C.ar    1  UNL1        0.0370
     18 C          63.0647   83.2940   11.4705 C.ar    1  UNL1        0.0062
     19 C          62.5475   84.4363   12.2936 C.ar    1  UNL1        0.0379
     20 C          62.3505   84.2674   13.7710 C.ar    1  UNL1        0.0062
     21 C          62.6708   82.9562   14.4253 C.ar    1  UNL1        0.0370
     22 C          62.6558   79.2994   13.9818 C.3     1  UNL1        0.2525
     23 O          63.5083   80.5026   14.2564 O.3     1  UNL1       -0.4714
     24 O          63.8861   86.9498   13.2371 O.3     1  UNL1       -0.4653
     25 C          63.9340   88.0572   14.2478 C.3     1  UNL1        0.2528
@<TRIPOS>BOND
     1    22    23    1
     2    23    16    1
     3    16    17   ar
     4    17    18   ar
     5    18    19   ar
     6    19     1    1
     7     1     2   ar
     8     2     3   ar
     9     3     4   ar
    10     4     5   ar
    11     5     6    1
    12     5     7   ar
    13     7     8   ar
    14     8     9    1
    15     8    10   ar
    16    10    11   ar
    17    11    12    2
    18    11    13   ar
    19    13    24    1
    20    24    25    1
    21    19    20   ar
    22    20    21   ar
    23    21    16   ar
    24    13     1   ar
    25    10     3   ar
    26     6    14    1
    27     9    15    1
@<TRIPOS>MOLECULE
*****
 25 27 0 0 0
SMALL
GASTEIGER

@<TRIPOS>ATOM
      1 C          63.7574   89.2485   13.0251 C.ar    1  UNL1        0.1821
      2 O          63.8707   87.7884   13.3495 O.2     1  UNL1       -0.4500
      3 C          63.1598   86.7746   12.5028 C.ar    1  UNL1        0.1545
      4 C          63.2731   85.3145   12.8272 C.ar    1  UNL1        0.0744
      5 C          62.5621   84.3008   11.9805 C.ar    1  UNL1        0.1397
      6 O          62.6754   82.8406   12.3049 O.3     1  UNL1       -0.5053
      7 C          61.7379   84.7472   10.8095 C.ar    1  UNL1        0.0735
      8 C          61.6246   86.2072   10.4851 C.ar    1  UNL1        0.1428
      9 O          60.8004   86.6536    9.3140 O.3     1  UNL1       -0.5052
     10 C          62.3355   87.2210   11.3317 C.ar    1  UNL1        0.1104
     11 C          62.2222   88.6811   11.0073 C.ar    1  UNL1        0.2381
     12 O          61.3980   89.1275    9.8363 O.2     1  UNL1       -0.2830
     13 C          62.9332   89.6948   11.8540 C.ar    1  UNL1        0.2119
     14 H          63.1903   82.5618   13.0364 H       1  UNL1        0.2922
     15 H          60.3563   86.0203    8.7851 H       1  UNL1        0.2922
     16 C          65.8901   92.2898   15.5651 C.ar    1  UNL1        0.1387
     17 C          66.3953   91.9759   14.1881 C.ar    1  UNL1        0.0370
     18 C          65.6845   90.9621   13.3414 C.ar    1  UNL1        0.0062
     19 C          64.4684   90.2623   13.8718 C.ar    1  UNL1        0.0379
     20 C          63.9632   90.5762   15.2488 C.ar    1  UNL1        0.0062
     21 C          64.6741   91.5900   16.0955 C.ar    1  UNL1        0.0370
     22 C          68.0150   93.6888   16.0920 C.3     1  UNL1        0.2525
     23 O          66.6011   93.3036   16.4118 O.3     1  UNL1       -0.4714
     24 O          62.8199   91.1550   11.5296 O.3     1  UNL1       -0.4653
     25 C          63.6024   91.7325   10.3876 C.3     1  UNL1        0.2528
@<TRIPOS>BOND
     1    22    23    1
     2    23    16    1
     3    16    17   ar
     4    17    18   ar
     5    18    19   ar
     6    19     1    1
     7     1     2   ar
     8     2     3   ar
     9     3     4   ar
    10     4     5   ar
    11     5     6    1
    12     5     7   ar
    13     7     8   ar
    14     8     9    1
    15     8    10   ar
    16    10    11   ar
    17    11    12    2
    18    11    13   ar
    19    13    24    1
    20    24    25    1
    21    19    20   ar
    22    20    21   ar
    23    21    16   ar
    24    13     1   ar
    25    10     3   ar
    26     6    14    1
    27     9    15    1
