@<TRIPOS>MOLECULE
*****
 32 34 0 0 0
SMALL
GASTEIGER

@<TRIPOS>ATOM
      1 C          62.9149   84.6987   15.6033 C.2     1  UNL1       -0.0009
      2 C          63.3898   86.0432   15.1379 C.2     1  UNL1        0.0168
      3 C          63.8693   86.3795   13.7569 C.3     1  UNL1        0.0344
      4 C          64.2444   87.8317   13.7372 C.3     1  UNL1        0.0344
      5 C          63.9968   88.3930   15.1061 C.2     1  UNL1        0.0168
      6 C          64.2355   89.8106   15.5341 C.2     1  UNL1       -0.0009
      7 C          63.4687   87.2876   15.9717 C.2     1  UNL1        0.1877
      8 O          63.0865   87.4059   17.4173 O.2     1  UNL1       -0.2872
      9 C          61.9131   81.2474   13.9195 C.ar    1  UNL1        0.1752
     10 C          61.9361   82.4057   14.8722 C.ar    1  UNL1        0.0402
     11 C          62.8919   83.5403   14.6505 C.ar    1  UNL1        0.0060
     12 C          63.8246   83.5166   13.4760 C.ar    1  UNL1        0.0402
     13 C          63.8015   82.3582   12.5233 C.ar    1  UNL1        0.1752
     14 C          62.8458   81.2236   12.7450 C.ar    1  UNL1        0.2024
     15 O          62.8227   80.0653   11.7922 O.3     1  UNL1       -0.5009
     16 H          63.4054   80.0505   11.0586 H       1  UNL1        0.2924
     17 C          59.4826   80.3774   14.2124 C.3     1  UNL1        0.2526
     18 O          60.9573   80.1128   14.1413 O.3     1  UNL1       -0.4683
     19 O          64.7343   82.3345   11.3487 O.3     1  UNL1       -0.4683
     20 C          64.3434   83.0082   10.0668 C.3     1  UNL1        0.2526
     21 C          64.7701   90.8106   14.5521 C.ar    1  UNL1        0.0060
     22 C          64.1560   90.9248   13.1885 C.ar    1  UNL1        0.0402
     23 C          64.6906   91.9248   12.2065 C.ar    1  UNL1        0.1752
     24 C          65.8392   92.8106   12.5883 C.ar    1  UNL1        0.2024
     25 O          66.3739   93.8107   11.6063 O.3     1  UNL1       -0.5009
     26 C          66.4534   92.6965   13.9520 C.ar    1  UNL1        0.1752
     27 C          65.9188   91.6964   14.9340 C.ar    1  UNL1        0.0402
     28 H          65.9903   93.8820   10.7544 H       1  UNL1        0.2924
     29 O          64.0764   92.0390   10.8428 O.3     1  UNL1       -0.4683
     30 C          63.0811   91.0165   10.3804 C.3     1  UNL1        0.2526
     31 O          67.6021   93.5822   14.3339 O.3     1  UNL1       -0.4683
     32 C          68.1436   93.5473   15.7323 C.3     1  UNL1        0.2526
@<TRIPOS>BOND
     1    17    18    1
     2    18     9    1
     3     9    10   ar
     4    10    11   ar
     5    11     1    1
     6     1     2    2
     7     2     3    1
     8     3     4    1
     9     4     5    1
    10     5     6    2
    11     6    21    1
    12    21    22   ar
    13    22    23   ar
    14    23    29    1
    15    29    30    1
    16    23    24   ar
    17    24    25    1
    18    24    26   ar
    19    26    31    1
    20    31    32    1
    21    26    27   ar
    22     5     7    1
    23     7     8    2
    24    11    12   ar
    25    12    13   ar
    26    13    19    1
    27    19    20    1
    28    13    14   ar
    29    14    15    1
    30    14     9   ar
    31     7     2    1
    32    27    21   ar
    33    25    28    1
    34    15    16    1
@<TRIPOS>MOLECULE
*****
 32 34 0 0 0
SMALL
GASTEIGER

@<TRIPOS>ATOM
      1 C          62.9116   84.6986   15.6013 C.2     1  UNL1       -0.0009
      2 C          63.3901   86.0423   15.1372 C.2     1  UNL1        0.0168
      3 C          63.8742   86.3776   13.7576 C.3     1  UNL1        0.0344
      4 C          64.2518   87.8292   13.7389 C.3     1  UNL1        0.0344
      5 C          64.0011   88.3911   15.1069 C.2     1  UNL1        0.0168
      6 C          64.2407   89.8084   15.5355 C.2     1  UNL1       -0.0009
      7 C          63.4685   87.2867   15.9710 C.2     1  UNL1        0.1877
      8 O          63.0822   87.4058   17.4155 O.2     1  UNL1       -0.2872
      9 C          61.9104   81.2479   13.9159 C.ar    1  UNL1        0.1752
     10 C          61.9325   82.4063   14.8686 C.ar    1  UNL1        0.0402
     11 C          62.8896   83.5401   14.6486 C.ar    1  UNL1        0.0060
     12 C          63.8246   83.5155   13.4760 C.ar    1  UNL1        0.0402
     13 C          63.8025   82.3571   12.5234 C.ar    1  UNL1        0.1752
     14 C          62.8454   81.2233   12.7433 C.ar    1  UNL1        0.2024
     15 O          62.8233   80.0649   11.7906 O.3     1  UNL1       -0.5009
     16 H          63.4074   80.0495   11.0581 H       1  UNL1        0.2924
     17 C          59.4794   80.3813   14.2145 C.3     1  UNL1        0.2526
     18 O          60.9532   80.1141   14.1359 O.3     1  UNL1       -0.4683
     19 O          64.7376   82.3325   11.3507 O.3     1  UNL1       -0.4683
     20 C          64.3481   83.0030   10.0667 C.3     1  UNL1        0.2526
     21 C          64.7799   90.8074   14.5550 C.ar    1  UNL1        0.0060
     22 C          65.9397   91.6797   14.9340 C.ar    1  UNL1        0.0402
     23 C          66.4787   92.6786   13.9534 C.ar    1  UNL1        0.1752
     24 C          65.8580   92.8052   12.5938 C.ar    1  UNL1        0.2024
     25 O          66.3970   93.8042   11.6132 O.3     1  UNL1       -0.5009
     26 C          64.6981   91.9329   12.2147 C.ar    1  UNL1        0.1752
     27 C          64.1590   90.9340   13.1954 C.ar    1  UNL1        0.0402
     28 H          67.1215   94.3492   11.8499 H       1  UNL1        0.2924
     29 O          67.6386   93.5510   14.3324 O.3     1  UNL1       -0.4683
     30 C          68.1576   93.5392   15.7397 C.3     1  UNL1        0.2526
     31 O          64.0772   92.0595   10.8551 O.3     1  UNL1       -0.4683
     32 C          63.1182   91.0139   10.3682 C.3     1  UNL1        0.2526
@<TRIPOS>BOND
     1    17    18    1
     2    18     9    1
     3     9    10   ar
     4    10    11   ar
     5    11     1    1
     6     1     2    2
     7     2     3    1
     8     3     4    1
     9     4     5    1
    10     5     6    2
    11     6    21    1
    12    21    22   ar
    13    22    23   ar
    14    23    29    1
    15    29    30    1
    16    23    24   ar
    17    24    25    1
    18    24    26   ar
    19    26    31    1
    20    31    32    1
    21    26    27   ar
    22     5     7    1
    23     7     8    2
    24    11    12   ar
    25    12    13   ar
    26    13    19    1
    27    19    20    1
    28    13    14   ar
    29    14    15    1
    30    14     9   ar
    31     7     2    1
    32    27    21   ar
    33    25    28    1
    34    15    16    1
@<TRIPOS>MOLECULE
*****
 32 34 0 0 0
SMALL
GASTEIGER

@<TRIPOS>ATOM
      1 C          62.9134   84.6984   15.6061 C.2     1  UNL1       -0.0009
      2 C          63.3887   86.0427   15.1403 C.2     1  UNL1        0.0168
      3 C          63.8685   86.3784   13.7593 C.3     1  UNL1        0.0344
      4 C          64.2441   87.8305   13.7393 C.3     1  UNL1        0.0344
      5 C          63.9964   88.3922   15.1079 C.2     1  UNL1        0.0168
      6 C          64.2355   89.8100   15.5355 C.2     1  UNL1       -0.0009
      7 C          63.4678   87.2873   15.9738 C.2     1  UNL1        0.1877
      8 O          63.0855   87.4062   17.4193 O.2     1  UNL1       -0.2872
      9 C          63.7987   82.3576   12.5260 C.ar    1  UNL1        0.1752
     10 C          63.8219   83.5162   13.4784 C.ar    1  UNL1        0.0402
     11 C          62.8902   83.5397   14.6537 C.ar    1  UNL1        0.0060
     12 C          61.9352   82.4047   14.8766 C.ar    1  UNL1        0.0402
     13 C          61.9120   81.2461   13.9242 C.ar    1  UNL1        0.1752
     14 C          62.8438   81.2226   12.7489 C.ar    1  UNL1        0.2024
     15 O          62.8206   80.0639   11.7965 O.3     1  UNL1       -0.5009
     16 H          62.2240   79.3549   11.9357 H       1  UNL1        0.2924
     17 C          64.3422   83.0155   10.0721 C.3     1  UNL1        0.2526
     18 O          64.7305   82.3341   11.3507 O.3     1  UNL1       -0.4683
     19 O          60.9571   80.1110   14.1471 O.3     1  UNL1       -0.4683
     20 C          59.4818   80.3741   14.2138 C.3     1  UNL1        0.2526
     21 C          64.7704   90.8095   14.5533 C.ar    1  UNL1        0.0060
     22 C          64.1513   90.9291   13.1923 C.ar    1  UNL1        0.0402
     23 C          64.6864   91.9286   12.2101 C.ar    1  UNL1        0.1752
     24 C          65.8405   92.8085   12.5889 C.ar    1  UNL1        0.2024
     25 O          66.3756   93.8081   11.6067 O.3     1  UNL1       -0.5009
     26 C          66.4597   92.6890   13.9499 C.ar    1  UNL1        0.1752
     27 C          65.9246   91.6894   14.9321 C.ar    1  UNL1        0.0402
     28 H          65.9888   93.8828   10.7565 H       1  UNL1        0.2924
     29 O          64.0672   92.0482   10.8491 O.3     1  UNL1       -0.4683
     30 C          63.0935   91.0106   10.3743 C.3     1  UNL1        0.2526
     31 O          67.6139   93.5690   14.3288 O.3     1  UNL1       -0.4683
     32 C          68.1390   93.5538   15.7338 C.3     1  UNL1        0.2526
@<TRIPOS>BOND
     1    17    18    1
     2    18     9    1
     3     9    10   ar
     4    10    11   ar
     5    11     1    1
     6     1     2    2
     7     2     3    1
     8     3     4    1
     9     4     5    1
    10     5     6    2
    11     6    21    1
    12    21    22   ar
    13    22    23   ar
    14    23    29    1
    15    29    30    1
    16    23    24   ar
    17    24    25    1
    18    24    26   ar
    19    26    31    1
    20    31    32    1
    21    26    27   ar
    22     5     7    1
    23     7     8    2
    24    11    12   ar
    25    12    13   ar
    26    13    19    1
    27    19    20    1
    28    13    14   ar
    29    14    15    1
    30    14     9   ar
    31     7     2    1
    32    27    21   ar
    33    25    28    1
    34    15    16    1
@<TRIPOS>MOLECULE
*****
 32 34 0 0 0
SMALL
GASTEIGER

@<TRIPOS>ATOM
      1 C          62.9164   84.6990   15.6011 C.2     1  UNL1       -0.0009
      2 C          63.3917   86.0437   15.1365 C.2     1  UNL1        0.0168
      3 C          63.8740   86.3799   13.7565 C.3     1  UNL1        0.0344
      4 C          64.2484   87.8323   13.7374 C.3     1  UNL1        0.0344
      5 C          63.9976   88.3937   15.1056 C.2     1  UNL1        0.0168
      6 C          64.2346   89.8116   15.5339 C.2     1  UNL1       -0.0009
      7 C          63.4681   87.2883   15.9702 C.2     1  UNL1        0.1877
      8 O          63.0826   87.4067   17.4150 O.2     1  UNL1       -0.2872
      9 C          63.8111   82.3584   12.5235 C.ar    1  UNL1        0.1752
     10 C          63.8315   83.5169   13.4761 C.ar    1  UNL1        0.0402
     11 C          62.8961   83.5404   14.6485 C.ar    1  UNL1        0.0060
     12 C          61.9403   82.4054   14.8682 C.ar    1  UNL1        0.0402
     13 C          61.9200   81.2470   13.9157 C.ar    1  UNL1        0.1752
     14 C          62.8554   81.2235   12.7433 C.ar    1  UNL1        0.2024
     15 O          62.8350   80.0649   11.7907 O.3     1  UNL1       -0.5009
     16 H          62.2380   79.3559   11.9280 H       1  UNL1        0.2924
     17 C          64.3569   83.0055   10.0672 C.3     1  UNL1        0.2526
     18 O          64.7465   82.3349   11.3511 O.3     1  UNL1       -0.4683
     19 O          60.9642   80.1119   14.1354 O.3     1  UNL1       -0.4683
     20 C          59.4906   80.3783   14.2215 C.3     1  UNL1        0.2526
     21 C          64.7708   90.8116   14.5529 C.ar    1  UNL1        0.0060
     22 C          65.9295   91.6860   14.9306 C.ar    1  UNL1        0.0402
     23 C          66.4656   92.6860   13.9496 C.ar    1  UNL1        0.1752
     24 C          65.8431   92.8117   12.5907 C.ar    1  UNL1        0.2024
     25 O          66.3792   93.8117   11.6096 O.3     1  UNL1       -0.5009
     26 C          64.6843   91.9373   12.2128 C.ar    1  UNL1        0.1752
     27 C          64.1482   90.9372   13.1940 C.ar    1  UNL1        0.0402
     28 H          67.1030   94.3580   11.8456 H       1  UNL1        0.2924
     29 O          67.6243   93.5605   14.3274 O.3     1  UNL1       -0.4683
     30 C          68.1558   93.5368   15.7299 C.3     1  UNL1        0.2526
     31 O          64.0617   92.0629   10.8539 O.3     1  UNL1       -0.4683
     32 C          63.1154   91.0081   10.3621 C.3     1  UNL1        0.2526
@<TRIPOS>BOND
     1    17    18    1
     2    18     9    1
     3     9    10   ar
     4    10    11   ar
     5    11     1    1
     6     1     2    2
     7     2     3    1
     8     3     4    1
     9     4     5    1
    10     5     6    2
    11     6    21    1
    12    21    22   ar
    13    22    23   ar
    14    23    29    1
    15    29    30    1
    16    23    24   ar
    17    24    25    1
    18    24    26   ar
    19    26    31    1
    20    31    32    1
    21    26    27   ar
    22     5     7    1
    23     7     8    2
    24    11    12   ar
    25    12    13   ar
    26    13    19    1
    27    19    20    1
    28    13    14   ar
    29    14    15    1
    30    14     9   ar
    31     7     2    1
    32    27    21   ar
    33    25    28    1
    34    15    16    1
@<TRIPOS>MOLECULE
*****
 32 34 0 0 0
SMALL
GASTEIGER

@<TRIPOS>ATOM
      1 C          61.9176   85.3541   11.2237 C.2     1  UNL1       -0.0009
      2 C          62.5411   86.6699   11.5841 C.2     1  UNL1        0.0168
      3 C          63.4864   86.9152   12.7226 C.3     1  UNL1        0.0344
      4 C          63.8583   88.3684   12.7115 C.3     1  UNL1        0.0344
      5 C          63.1429   89.0211   11.5660 C.2     1  UNL1        0.0168
      6 C          63.2267   90.4693   11.1843 C.2     1  UNL1       -0.0009
      7 C          62.3288   87.9714   10.8693 C.2     1  UNL1        0.1877
      8 O          61.4557   88.1857    9.6686 O.2     1  UNL1       -0.2872
      9 C          62.6730   81.5753   12.1725 C.ar    1  UNL1        0.1752
     10 C          62.3651   82.7985   11.3607 C.ar    1  UNL1        0.0402
     11 C          62.2255   84.1309   12.0355 C.ar    1  UNL1        0.0060
     12 C          62.3937   84.2400   13.5220 C.ar    1  UNL1        0.0402
     13 C          62.7015   83.0168   14.3338 C.ar    1  UNL1        0.1752
     14 C          62.8412   81.6845   13.6590 C.ar    1  UNL1        0.2024
     15 O          63.1491   80.4612   14.4708 O.3     1  UNL1       -0.5009
     16 H          63.2541   80.5294   15.3994 H       1  UNL1        0.2924
     17 C          63.0160   80.1717   10.0133 C.3     1  UNL1        0.2526
     18 O          62.8127   80.2430   11.4977 O.3     1  UNL1       -0.4683
     19 O          62.8697   83.1259   15.8203 O.3     1  UNL1       -0.4683
     20 C          62.7166   84.4559   16.4968 C.3     1  UNL1        0.2526
     21 C          64.0874   91.4058   11.9795 C.ar    1  UNL1        0.0060
     22 C          64.9468   92.4143   11.2766 C.ar    1  UNL1        0.0402
     23 C          65.8074   93.3507   12.0718 C.ar    1  UNL1        0.1752
     24 C          65.8086   93.2786   13.5700 C.ar    1  UNL1        0.2024
     25 O          66.6692   94.2151   14.3654 O.3     1  UNL1       -0.5009
     26 C          64.9492   92.2701   14.2731 C.ar    1  UNL1        0.1752
     27 C          64.0885   91.3337   13.4778 C.ar    1  UNL1        0.0402
     28 H          67.2061   94.8451   13.9263 H       1  UNL1        0.2924
     29 O          66.6669   94.3592   11.3688 O.3     1  UNL1       -0.4683
     30 C          66.1792   95.7666   11.1913 C.3     1  UNL1        0.2526
     31 O          64.9503   92.1980   15.7714 O.3     1  UNL1       -0.4683
     32 C          63.9603   91.3225   16.4809 C.3     1  UNL1        0.2526
@<TRIPOS>BOND
     1    17    18    1
     2    18     9    1
     3     9    10   ar
     4    10    11   ar
     5    11     1    1
     6     1     2    2
     7     2     3    1
     8     3     4    1
     9     4     5    1
    10     5     6    2
    11     6    21    1
    12    21    22   ar
    13    22    23   ar
    14    23    29    1
    15    29    30    1
    16    23    24   ar
    17    24    25    1
    18    24    26   ar
    19    26    31    1
    20    31    32    1
    21    26    27   ar
    22     5     7    1
    23     7     8    2
    24    11    12   ar
    25    12    13   ar
    26    13    19    1
    27    19    20    1
    28    13    14   ar
    29    14    15    1
    30    14     9   ar
    31     7     2    1
    32    27    21   ar
    33    25    28    1
    34    15    16    1
@<TRIPOS>MOLECULE
*****
 32 34 0 0 0
SMALL
GASTEIGER

@<TRIPOS>ATOM
      1 C          61.8973   85.5679   11.3111 C.2     1  UNL1       -0.0009
      2 C          62.5557   86.8672   11.6693 C.2     1  UNL1        0.0168
      3 C          63.5287   87.0830   12.7904 C.3     1  UNL1        0.0344
      4 C          63.9311   88.5280   12.7833 C.3     1  UNL1        0.0344
      5 C          63.2068   89.2053   11.6578 C.2     1  UNL1        0.0168
      6 C          63.3137   90.6546   11.2860 C.2     1  UNL1       -0.0009
      7 C          62.3568   88.1789   10.9694 C.2     1  UNL1        0.1877
      8 O          61.4645   88.4216    9.7883 O.2     1  UNL1       -0.2872
      9 C          62.6431   83.1806   14.3925 C.ar    1  UNL1        0.1752
     10 C          62.3451   84.4168   13.5968 C.ar    1  UNL1        0.0402
     11 C          62.1954   84.3317   12.1068 C.ar    1  UNL1        0.0060
     12 C          62.3437   83.0105   11.4123 C.ar    1  UNL1        0.0402
     13 C          62.6417   81.7743   12.2079 C.ar    1  UNL1        0.1752
     14 C          62.7915   81.8594   13.6980 C.ar    1  UNL1        0.2024
     15 O          63.0895   80.6232   14.4937 O.3     1  UNL1       -0.5009
     16 H          63.1822   79.7978   14.0598 H       1  UNL1        0.2924
     17 C          62.7972   84.6036   16.5607 C.3     1  UNL1        0.2526
     18 O          62.7929   83.2657   15.8826 O.3     1  UNL1       -0.4683
     19 O          62.7901   80.4530   11.5135 O.3     1  UNL1       -0.4683
     20 C          63.1514   80.4069   10.0584 C.3     1  UNL1        0.2526
     21 C          64.2098   91.5660   12.0711 C.ar    1  UNL1        0.0060
     22 C          64.2572   91.4655   13.5669 C.ar    1  UNL1        0.0402
     23 C          65.1534   92.3769   14.3519 C.ar    1  UNL1        0.1752
     24 C          66.0021   93.3889   13.6410 C.ar    1  UNL1        0.2024
     25 O          66.8983   94.3004   14.4260 O.3     1  UNL1       -0.5009
     26 C          65.9548   93.4896   12.1452 C.ar    1  UNL1        0.1752
     27 C          65.0586   92.5780   11.3602 C.ar    1  UNL1        0.0402
     28 H          66.9279   94.2376   15.3605 H       1  UNL1        0.2924
     29 O          65.2007   92.2763   15.8478 O.3     1  UNL1       -0.4683
     30 C          64.1197   91.5427   16.5848 C.3     1  UNL1        0.2526
     31 O          66.8035   94.5016   11.4342 O.3     1  UNL1       -0.4683
     32 C          66.2666   95.8767   11.1682 C.3     1  UNL1        0.2526
@<TRIPOS>BOND
     1    17    18    1
     2    18     9    1
     3     9    10   ar
     4    10    11   ar
     5    11     1    1
     6     1     2    2
     7     2     3    1
     8     3     4    1
     9     4     5    1
    10     5     6    2
    11     6    21    1
    12    21    22   ar
    13    22    23   ar
    14    23    29    1
    15    29    30    1
    16    23    24   ar
    17    24    25    1
    18    24    26   ar
    19    26    31    1
    20    31    32    1
    21    26    27   ar
    22     5     7    1
    23     7     8    2
    24    11    12   ar
    25    12    13   ar
    26    13    19    1
    27    19    20    1
    28    13    14   ar
    29    14    15    1
    30    14     9   ar
    31     7     2    1
    32    27    21   ar
    33    25    28    1
    34    15    16    1
@<TRIPOS>MOLECULE
*****
 32 34 0 0 0
SMALL
GASTEIGER

@<TRIPOS>ATOM
      1 C          61.9345   85.3496   11.2165 C.2     1  UNL1       -0.0009
      2 C          62.5562   86.6635   11.5871 C.2     1  UNL1        0.0168
      3 C          63.4844   86.9056   12.7403 C.3     1  UNL1        0.0344
      4 C          63.8607   88.3576   12.7355 C.3     1  UNL1        0.0344
      5 C          63.1651   89.0129   11.5793 C.2     1  UNL1        0.0168
      6 C          63.2592   90.4610   11.1995 C.2     1  UNL1       -0.0009
      7 C          62.3590   87.9659   10.8696 C.2     1  UNL1        0.1877
      8 O          61.5053   88.1831    9.6554 O.2     1  UNL1       -0.2872
      9 C          62.6528   81.5665   12.1766 C.ar    1  UNL1        0.1752
     10 C          62.3613   82.7909   11.3607 C.ar    1  UNL1        0.0402
     11 C          62.2261   84.1252   12.0325 C.ar    1  UNL1        0.0060
     12 C          62.3825   84.2351   13.5202 C.ar    1  UNL1        0.0402
     13 C          62.6741   83.0107   14.3362 C.ar    1  UNL1        0.1752
     14 C          62.8092   81.6764   13.6644 C.ar    1  UNL1        0.2024
     15 O          63.1008   80.4520   14.4804 O.3     1  UNL1       -0.5009
     16 H          63.1985   80.5207   15.4098 H       1  UNL1        0.2924
     17 C          63.0545   80.1583   10.0306 C.3     1  UNL1        0.2526
     18 O          62.7879   80.2322   11.5049 O.3     1  UNL1       -0.4683
     19 O          62.8305   83.1206   15.8240 O.3     1  UNL1       -0.4683
     20 C          62.7678   84.4645   16.4875 C.3     1  UNL1        0.2526
     21 C          64.1101   91.3946   12.0085 C.ar    1  UNL1        0.0060
     22 C          64.0852   91.3245   13.5065 C.ar    1  UNL1        0.0402
     23 C          64.9361   92.2582   14.3153 C.ar    1  UNL1        0.1752
     24 C          65.8119   93.2620   13.6261 C.ar    1  UNL1        0.2024
     25 O          66.6629   94.1957   14.4349 O.3     1  UNL1       -0.5009
     26 C          65.8369   93.3322   12.1279 C.ar    1  UNL1        0.1752
     27 C          64.9860   92.3985   11.3191 C.ar    1  UNL1        0.0402
     28 H          66.6473   94.1519   15.3708 H       1  UNL1        0.2924
     29 O          64.9111   92.1880   15.8135 O.3     1  UNL1       -0.4683
     30 C          63.9295   91.2898   16.5061 C.3     1  UNL1        0.2526
     31 O          66.7128   94.3360   11.4386 O.3     1  UNL1       -0.4683
     32 C          66.1619   95.6798   11.0634 C.3     1  UNL1        0.2526
@<TRIPOS>BOND
     1    17    18    1
     2    18     9    1
     3     9    10   ar
     4    10    11   ar
     5    11     1    1
     6     1     2    2
     7     2     3    1
     8     3     4    1
     9     4     5    1
    10     5     6    2
    11     6    21    1
    12    21    22   ar
    13    22    23   ar
    14    23    29    1
    15    29    30    1
    16    23    24   ar
    17    24    25    1
    18    24    26   ar
    19    26    31    1
    20    31    32    1
    21    26    27   ar
    22     5     7    1
    23     7     8    2
    24    11    12   ar
    25    12    13   ar
    26    13    19    1
    27    19    20    1
    28    13    14   ar
    29    14    15    1
    30    14     9   ar
    31     7     2    1
    32    27    21   ar
    33    25    28    1
    34    15    16    1
@<TRIPOS>MOLECULE
*****
 32 34 0 0 0
SMALL
GASTEIGER

@<TRIPOS>ATOM
      1 C          58.7481   90.0289    6.6425 C.2     1  UNL1       -0.0009
      2 C          59.5082   90.7008    5.5376 C.2     1  UNL1        0.0168
      3 C          60.9261   90.4136    5.1414 C.3     1  UNL1        0.0344
      4 C          61.2780   91.3131    3.9937 C.3     1  UNL1        0.0344
      5 C          60.0775   92.1562    3.6806 C.2     1  UNL1        0.0168
      6 C          59.9868   93.1953    2.6026 C.2     1  UNL1       -0.0009
      7 C          58.9837   91.7778    4.6348 C.2     1  UNL1        0.1877
      8 O          57.6072   92.3720    4.6784 O.2     1  UNL1       -0.2872
      9 C          60.6200   88.2297    9.6440 C.ar    1  UNL1        0.1752
     10 C          59.9604   89.2957    8.8204 C.ar    1  UNL1        0.0402
     11 C          59.4078   88.9628    7.4662 C.ar    1  UNL1        0.0060
     12 C          59.5149   87.5639    6.9357 C.ar    1  UNL1        0.0402
     13 C          60.1745   86.4979    7.7593 C.ar    1  UNL1        0.1752
     14 C          60.7271   86.8308    9.1135 C.ar    1  UNL1        0.2024
     15 O          61.3868   85.7647    9.9372 O.3     1  UNL1       -0.5009
     16 H          61.4537   84.8909    9.6057 H       1  UNL1        0.2924
     17 C          62.5684   89.0961   11.1283 C.3     1  UNL1        0.2526
     18 O          61.1726   88.5627   10.9982 O.3     1  UNL1       -0.4683
     19 O          60.2816   85.0989    7.2288 O.3     1  UNL1       -0.4683
     20 C          61.5084   84.6735    6.4778 C.3     1  UNL1        0.2526
     21 C          61.1695   93.4661    1.7206 C.ar    1  UNL1        0.0060
     22 C          62.4443   93.9876    2.3144 C.ar    1  UNL1        0.0402
     23 C          63.6269   94.2584    1.4323 C.ar    1  UNL1        0.1752
     24 C          63.5347   94.0076   -0.0436 C.ar    1  UNL1        0.2024
     25 O          64.7173   94.2784   -0.9258 O.3     1  UNL1       -0.5009
     26 C          62.2598   93.4861   -0.6376 C.ar    1  UNL1        0.1752
     27 C          61.0772   93.2153    0.2446 C.ar    1  UNL1        0.0402
     28 H          65.5137   94.6042   -0.5548 H       1  UNL1        0.2924
     29 O          64.9017   94.7799    2.0262 O.3     1  UNL1       -0.4683
     30 C          64.9742   96.1930    2.5242 C.3     1  UNL1        0.2526
     31 O          62.1675   93.2353   -2.1136 O.3     1  UNL1       -0.4683
     32 C          61.0113   93.7830   -2.8966 C.3     1  UNL1        0.2526
@<TRIPOS>BOND
     1    17    18    1
     2    18     9    1
     3     9    10   ar
     4    10    11   ar
     5    11     1    1
     6     1     2    2
     7     2     3    1
     8     3     4    1
     9     4     5    1
    10     5     6    2
    11     6    21    1
    12    21    22   ar
    13    22    23   ar
    14    23    29    1
    15    29    30    1
    16    23    24   ar
    17    24    25    1
    18    24    26   ar
    19    26    31    1
    20    31    32    1
    21    26    27   ar
    22     5     7    1
    23     7     8    2
    24    11    12   ar
    25    12    13   ar
    26    13    19    1
    27    19    20    1
    28    13    14   ar
    29    14    15    1
    30    14     9   ar
    31     7     2    1
    32    27    21   ar
    33    25    28    1
    34    15    16    1
@<TRIPOS>MOLECULE
*****
 32 34 0 0 0
SMALL
GASTEIGER

@<TRIPOS>ATOM
      1 C          61.8526   85.5977   11.3302 C.2     1  UNL1       -0.0009
      2 C          62.5334   86.8927   11.6613 C.2     1  UNL1        0.0168
      3 C          63.5435   87.1046   12.7498 C.3     1  UNL1        0.0344
      4 C          63.9580   88.5459   12.7234 C.3     1  UNL1        0.0344
      5 C          63.2041   89.2249   11.6185 C.2     1  UNL1        0.0168
      6 C          63.3117   90.6715   11.2370 C.2     1  UNL1       -0.0009
      7 C          62.3236   88.2031   10.9622 C.2     1  UNL1        0.1877
      8 O          61.3962   88.4486    9.8091 O.2     1  UNL1       -0.2872
      9 C          62.6201   83.2074   14.4038 C.ar    1  UNL1        0.1752
     10 C          62.3076   84.4427   13.6125 C.ar    1  UNL1        0.0402
     11 C          62.1652   84.3623   12.1215 C.ar    1  UNL1        0.0060
     12 C          62.3353   83.0465   11.4217 C.ar    1  UNL1        0.0402
     13 C          62.6478   81.8112   12.2130 C.ar    1  UNL1        0.1752
     14 C          62.7902   81.8916   13.7040 C.ar    1  UNL1        0.2024
     15 O          63.1028   80.6561   14.4953 O.3     1  UNL1       -0.5009
     16 H          63.2090   79.8342   14.0582 H       1  UNL1        0.2924
     17 C          62.7675   84.6238   16.5768 C.3     1  UNL1        0.2526
     18 O          62.7626   83.2878   15.8949 O.3     1  UNL1       -0.4683
     19 O          62.8179   80.4953   11.5132 O.3     1  UNL1       -0.4683
     20 C          63.1335   80.4607   10.0472 C.3     1  UNL1        0.2526
     21 C          64.2403   91.5783   11.9890 C.ar    1  UNL1        0.0060
     22 C          65.0971   92.5589   11.2446 C.ar    1  UNL1        0.0402
     23 C          66.0257   93.4656   11.9966 C.ar    1  UNL1        0.1752
     24 C          66.0975   93.3918   13.4930 C.ar    1  UNL1        0.2024
     25 O          67.0261   94.2985   14.2451 O.3     1  UNL1       -0.5009
     26 C          65.2407   92.4111   14.2375 C.ar    1  UNL1        0.1752
     27 C          64.3121   91.5044   13.4854 C.ar    1  UNL1        0.0402
     28 H          67.5613   94.9111   13.7801 H       1  UNL1        0.2924
     29 O          66.8825   94.4463   11.2522 O.3     1  UNL1       -0.4683
     30 C          66.3580   95.8172   10.9431 C.3     1  UNL1        0.2526
     31 O          65.3124   92.3372   15.7340 O.3     1  UNL1       -0.4683
     32 C          64.2226   91.6523   16.5042 C.3     1  UNL1        0.2526
@<TRIPOS>BOND
     1    17    18    1
     2    18     9    1
     3     9    10   ar
     4    10    11   ar
     5    11     1    1
     6     1     2    2
     7     2     3    1
     8     3     4    1
     9     4     5    1
    10     5     6    2
    11     6    21    1
    12    21    22   ar
    13    22    23   ar
    14    23    29    1
    15    29    30    1
    16    23    24   ar
    17    24    25    1
    18    24    26   ar
    19    26    31    1
    20    31    32    1
    21    26    27   ar
    22     5     7    1
    23     7     8    2
    24    11    12   ar
    25    12    13   ar
    26    13    19    1
    27    19    20    1
    28    13    14   ar
    29    14    15    1
    30    14     9   ar
    31     7     2    1
    32    27    21   ar
    33    25    28    1
    34    15    16    1
