@<TRIPOS>MOLECULE
*****
 36 39 0 0 0
SMALL
GASTEIGER

@<TRIPOS>ATOM
      1 C          63.3095   85.9906   13.1298 C.ar    1  UNL1        0.2039
      2 N          63.4727   85.3621   14.4819 N.ar    1  UNL1       -0.2135
      3 C          63.1575   83.9011   14.3551 C.ar    1  UNL1        0.0996
      4 C          63.1503   82.7851   15.3574 C.ar    1  UNL1        0.0206
      5 C          62.7850   81.3948   14.9291 C.ar    1  UNL1        0.0013
      6 C          62.4269   81.1204   13.4985 C.ar    1  UNL1       -0.0027
      7 C          62.4342   82.2363   12.4963 C.ar    1  UNL1       -0.0045
      8 C          62.0761   81.9619   11.0657 C.3     1  UNL1        0.0326
      9 C          62.7995   83.6266   12.9245 C.ar    1  UNL1        0.0758
     10 N          62.8934   84.9181   12.1673 N.ar    1  UNL1       -0.2999
     11 C          62.6194   85.1042   10.7043 C.3     1  UNL1        0.1078
     12 C          63.5059   84.3320    9.7727 C.3     1  UNL1        0.0245
     13 C          63.4870   84.3028    8.2732 C.3     1  UNL1        0.0037
     14 C          62.5770   85.0386    7.3347 C.3     1  UNL1        0.0216
     15 C          61.4611   85.9852    7.6642 C.3     1  UNL1        0.0938
     16 N          60.9796   86.4300    9.0134 N.am    1  UNL1       -0.2742
     17 C          59.8307   87.3944    9.0091 C.2     1  UNL1        0.2489
     18 O          59.2725   87.9018   10.3057 O.2     1  UNL1       -0.2699
     19 C          61.4951   86.0378   10.3664 C.3     1  UNL1        0.1162
     20 C          59.2399   87.8512    7.7083 C.2     1  UNL1        0.0548
     21 C          59.4900   89.2474    7.2202 C.2     1  UNL1       -0.0041
     22 C          58.8994   89.7044    5.9194 C.3     1  UNL1        0.0991
     23 N          59.4303   90.9348    5.2456 N.3     1  UNL1       -0.2665
     24 C          58.4942   92.0404    4.8570 C.3     1  UNL1        0.0899
     25 C          60.8977   91.0595    4.9603 C.3     1  UNL1        0.0899
     26 C          64.1498   88.3535   13.8085 C.2     1  UNL1        0.2517
     27 O          64.5598   87.8224   15.1501 O.2     1  UNL1       -0.2697
     28 N          63.5246   87.4377   12.7984 N.am    1  UNL1       -0.2518
     29 H          63.2555   87.7863   11.9179 H       1  UNL1        0.1580
     30 C          66.3898   92.9244   14.8524 C.3     1  UNL1        0.0521
     31 C          65.4849   92.0860   13.9991 C.ar    1  UNL1        0.0595
     32 C          65.2698   90.6390   14.3305 C.ar    1  UNL1        0.0193
     33 C          64.3649   89.8006   13.4771 C.ar    1  UNL1        0.0565
     34 C          63.6751   90.4092   12.2923 C.ar    1  UNL1        0.0252
     35 C          63.8902   91.8562   11.9609 C.ar    1  UNL1        0.0986
     36 N          64.7950   92.6946   12.8143 N.ar    1  UNL1       -0.2481
@<TRIPOS>BOND
     1    30    31    1
     2    31    32   ar
     3    32    33   ar
     4    33    26    1
     5    26    27    2
     6    26    28   am
     7    28     1    1
     8     1     2   ar
     9     2     3   ar
    10     3     4   ar
    11     4     5   ar
    12     5     6   ar
    13     6     7   ar
    14     7     8    1
    15     7     9   ar
    16     9    10   ar
    17    11    10    1
    18    11    12    1
    19    12    13    1
    20    13    14    1
    21    14    15    1
    22    15    16    1
    23    16    17   am
    24    17    18    2
    25    17    20    1
    26    20    21    2
    27    21    22    1
    28    22    23    1
    29    23    24    1
    30    23    25    1
    31    16    19    1
    32    33    34   ar
    33    34    35   ar
    34    35    36   ar
    35    36    31   ar
    36    10     1   ar
    37    19    11    1
    38     9     3   ar
    39    28    29    1
@<TRIPOS>MOLECULE
*****
 36 39 0 0 0
SMALL
GASTEIGER

@<TRIPOS>ATOM
      1 C          63.1123   86.0385   13.3069 C.ar    1  UNL1        0.2039
      2 N          63.7361   86.7042   14.4975 N.ar    1  UNL1       -0.2135
      3 C          63.9792   88.1430   14.1498 C.ar    1  UNL1        0.0996
      4 C          64.5705   89.2784   14.9314 C.ar    1  UNL1        0.0206
      5 C          64.6883   90.6373   14.3074 C.ar    1  UNL1        0.0013
      6 C          64.2148   90.8608   12.9018 C.ar    1  UNL1       -0.0027
      7 C          63.6234   89.7254   12.1202 C.ar    1  UNL1       -0.0045
      8 C          63.1498   89.9489   10.7145 C.3     1  UNL1        0.0326
      9 C          63.5056   88.3664   12.7441 C.ar    1  UNL1        0.0758
     10 N          62.9699   87.0658   12.2232 N.ar    1  UNL1       -0.2999
     11 C          62.3929   86.8334   10.8583 C.3     1  UNL1        0.1078
     12 C          62.8429   85.5809   10.1661 C.3     1  UNL1        0.0245
     13 C          62.4535   85.0699    8.8108 C.3     1  UNL1        0.0037
     14 C          61.5178   85.6849    7.8126 C.3     1  UNL1        0.0216
     15 C          60.7406   86.9631    7.9235 C.3     1  UNL1        0.0938
     16 N          60.7069   87.9417    9.0597 N.am    1  UNL1       -0.2742
     17 C          59.8208   89.1361    8.8641 C.2     1  UNL1        0.2489
     18 O          59.7150   90.1758    9.9401 O.2     1  UNL1       -0.2699
     19 C          61.4424   87.8839   10.3658 C.3     1  UNL1        0.1162
     20 C          59.0404   89.2906    7.5924 C.2     1  UNL1        0.0548
     21 C          59.6258   90.0537    6.4413 C.2     1  UNL1       -0.0041
     22 C          58.8456   90.2083    5.1696 C.3     1  UNL1        0.0991
     23 N          58.3241   91.5564    4.7687 N.3     1  UNL1       -0.2665
     24 C          56.8501   91.8316    4.8053 C.3     1  UNL1        0.0899
     25 C          59.2768   92.6292    4.3312 C.3     1  UNL1        0.0899
     26 C          63.6632   83.5780   12.6805 C.2     1  UNL1        0.2517
     27 O          65.0330   83.9978   12.2362 O.2     1  UNL1       -0.2697
     28 N          62.7029   84.5983   13.2158 N.am    1  UNL1       -0.2518
     29 H          61.8038   84.3228   13.5075 H       1  UNL1        0.1580
     30 C          62.8278   79.3081    9.8397 C.3     1  UNL1        0.0521
     31 C          62.8361   80.0029   11.1690 C.ar    1  UNL1        0.0595
     32 C          63.2455   81.4430   11.2600 C.ar    1  UNL1        0.0193
     33 C          63.2537   82.1378   12.5895 C.ar    1  UNL1        0.0565
     34 C          62.8525   81.3924   13.8278 C.ar    1  UNL1        0.0252
     35 C          62.4431   79.9523   13.7367 C.ar    1  UNL1        0.0986
     36 N          62.4349   79.2575   12.4074 N.ar    1  UNL1       -0.2481
@<TRIPOS>BOND
     1    30    31    1
     2    31    32   ar
     3    32    33   ar
     4    33    26    1
     5    26    27    2
     6    26    28   am
     7    28     1    1
     8     1     2   ar
     9     2     3   ar
    10     3     4   ar
    11     4     5   ar
    12     5     6   ar
    13     6     7   ar
    14     7     8    1
    15     7     9   ar
    16     9    10   ar
    17    11    10    1
    18    11    12    1
    19    12    13    1
    20    13    14    1
    21    14    15    1
    22    15    16    1
    23    16    17   am
    24    17    18    2
    25    17    20    1
    26    20    21    2
    27    21    22    1
    28    22    23    1
    29    23    24    1
    30    23    25    1
    31    16    19    1
    32    33    34   ar
    33    34    35   ar
    34    35    36   ar
    35    36    31   ar
    36    10     1   ar
    37    19    11    1
    38     9     3   ar
    39    28    29    1
@<TRIPOS>MOLECULE
*****
 36 39 0 0 0
SMALL
GASTEIGER

@<TRIPOS>ATOM
      1 C          63.8321   90.4334   11.9774 C.ar    1  UNL1        0.2039
      2 N          64.4049   91.6540   11.3202 N.ar    1  UNL1       -0.2135
      3 C          65.1920   92.4088   12.3502 C.ar    1  UNL1        0.0996
      4 C          65.9761   93.6854   12.2771 C.ar    1  UNL1        0.0206
      5 C          66.6739   94.2078   13.4978 C.ar    1  UNL1        0.0013
      6 C          66.5875   93.4537   14.7916 C.ar    1  UNL1       -0.0027
      7 C          65.8033   92.1771   14.8646 C.ar    1  UNL1       -0.0045
      8 C          65.7168   91.4230   16.1584 C.3     1  UNL1        0.0326
      9 C          65.1055   91.6547   13.6439 C.ar    1  UNL1        0.0758
     10 N          64.2651   90.4338   13.4135 N.ar    1  UNL1       -0.2999
     11 C          63.9185   89.3956   14.4392 C.3     1  UNL1        0.1078
     12 C          63.5712   89.9176   15.8020 C.3     1  UNL1        0.0245
     13 C          63.1848   89.1456   17.0286 C.3     1  UNL1        0.0037
     14 C          63.0500   87.6610   17.1955 C.3     1  UNL1        0.0216
     15 C          63.2684   86.5818   16.1769 C.3     1  UNL1        0.0938
     16 N          63.6756   86.7205   14.7399 N.am    1  UNL1       -0.2742
     17 C          63.8114   85.4373   13.9751 C.2     1  UNL1        0.2489
     18 O          64.2141   85.4642   12.5304 O.2     1  UNL1       -0.2699
     19 C          63.9649   87.9728   13.9666 C.3     1  UNL1        0.1162
     20 C          63.5446   84.1272   14.6551 C.2     1  UNL1        0.0548
     21 C          62.4954   83.2015   14.1143 C.2     1  UNL1       -0.0041
     22 C          62.2285   81.8914   14.7942 C.3     1  UNL1        0.0991
     23 N          61.5901   80.7676   14.0330 N.3     1  UNL1       -0.2665
     24 C          62.4169   79.9214   13.1109 C.3     1  UNL1        0.0899
     25 C          60.1248   80.4901   14.1938 C.3     1  UNL1        0.0899
     26 C          62.2775   89.7098   10.0255 C.2     1  UNL1        0.2517
     27 O          62.4341   91.0637    9.3989 O.2     1  UNL1       -0.2697
     28 N          62.9764   89.3947   11.3147 N.am    1  UNL1       -0.2518
     29 H          62.8736   88.5061   11.7260 H       1  UNL1        0.1580
     30 C          61.7491   84.9870    7.9240 C.3     1  UNL1        0.0521
     31 C          61.1577   86.3097    8.3122 C.ar    1  UNL1        0.0595
     32 C          62.0133   87.3484    8.9748 C.ar    1  UNL1        0.0193
     33 C          61.4219   88.6711    9.3629 C.ar    1  UNL1        0.0565
     34 C          59.9748   88.9551    9.0884 C.ar    1  UNL1        0.0252
     35 C          59.1192   87.9164    8.4258 C.ar    1  UNL1        0.0986
     36 N          59.7106   86.5938    8.0377 N.ar    1  UNL1       -0.2481
@<TRIPOS>BOND
     1    30    31    1
     2    31    32   ar
     3    32    33   ar
     4    33    26    1
     5    26    27    2
     6    26    28   am
     7    28     1    1
     8     1     2   ar
     9     2     3   ar
    10     3     4   ar
    11     4     5   ar
    12     5     6   ar
    13     6     7   ar
    14     7     8    1
    15     7     9   ar
    16     9    10   ar
    17    11    10    1
    18    11    12    1
    19    12    13    1
    20    13    14    1
    21    14    15    1
    22    15    16    1
    23    16    17   am
    24    17    18    2
    25    17    20    1
    26    20    21    2
    27    21    22    1
    28    22    23    1
    29    23    24    1
    30    23    25    1
    31    16    19    1
    32    33    34   ar
    33    34    35   ar
    34    35    36   ar
    35    36    31   ar
    36    10     1   ar
    37    19    11    1
    38     9     3   ar
    39    28    29    1
@<TRIPOS>MOLECULE
*****
 36 39 0 0 0
SMALL
GASTEIGER

@<TRIPOS>ATOM
      1 C          63.7402   84.9539   13.8298 C.ar    1  UNL1        0.2039
      2 N          63.9990   83.9500   14.9138 N.ar    1  UNL1       -0.2135
      3 C          63.6657   82.5902   14.3754 C.ar    1  UNL1        0.0996
      4 C          63.7254   81.2242   14.9922 C.ar    1  UNL1        0.0206
      5 C          63.3203   80.0218   14.1922 C.ar    1  UNL1        0.0013
      6 C          62.8556   80.1853   12.7754 C.ar    1  UNL1       -0.0027
      7 C          62.7959   81.5513   12.1586 C.ar    1  UNL1       -0.0045
      8 C          62.3312   81.7148   10.7418 C.3     1  UNL1        0.0326
      9 C          63.2010   82.7537   12.9586 C.ar    1  UNL1        0.0758
     10 N          63.2470   84.2146   12.6214 N.ar    1  UNL1       -0.2999
     11 C          62.8667   84.8284   11.3066 C.3     1  UNL1        0.1078
     12 C          63.5528   84.2595   10.1000 C.3     1  UNL1        0.0245
     13 C          63.3922   84.6516    8.6612 C.3     1  UNL1        0.0037
     14 C          62.5058   85.7094    8.0734 C.3     1  UNL1        0.0216
     15 C          61.5612   86.6363    8.7794 C.3     1  UNL1        0.0938
     16 N          61.2695   86.7344   10.2475 N.am    1  UNL1       -0.2742
     17 C          60.2639   87.7747   10.6432 C.2     1  UNL1        0.2489
     18 O          59.9002   87.9552   12.0872 O.2     1  UNL1       -0.2699
     19 C          61.8506   85.9298   11.3722 C.3     1  UNL1        0.1162
     20 C          59.6220   88.6343    9.5949 C.2     1  UNL1        0.0548
     21 C          60.4687   89.5203    8.7299 C.2     1  UNL1       -0.0041
     22 C          59.8270   90.3800    7.6816 C.3     1  UNL1        0.0991
     23 N          59.1940   89.7480    6.4776 N.3     1  UNL1       -0.2665
     24 C          59.1799   88.2549    6.3343 C.3     1  UNL1        0.0899
     25 C          58.5750   90.6091    5.4168 C.3     1  UNL1        0.0899
     26 C          63.6559   87.1414   15.2290 C.2     1  UNL1        0.2517
     27 O          63.1726   86.3630   16.4167 O.2     1  UNL1       -0.2697
     28 N          63.9397   86.4369   13.9355 N.am    1  UNL1       -0.2518
     29 H          64.2568   86.9477   13.1560 H       1  UNL1        0.1580
     30 C          65.5599   91.5748   13.3002 C.3     1  UNL1        0.0521
     31 C          64.8074   90.8410   14.3703 C.ar    1  UNL1        0.0595
     32 C          64.6079   89.3581   14.2646 C.ar    1  UNL1        0.0193
     33 C          63.8553   88.6243   15.3347 C.ar    1  UNL1        0.0565
     34 C          63.3022   89.3735   16.5106 C.ar    1  UNL1        0.0252
     35 C          63.5016   90.8564   16.6164 C.ar    1  UNL1        0.0986
     36 N          64.2542   91.5902   15.5463 N.ar    1  UNL1       -0.2481
@<TRIPOS>BOND
     1    30    31    1
     2    31    32   ar
     3    32    33   ar
     4    33    26    1
     5    26    27    2
     6    26    28   am
     7    28     1    1
     8     1     2   ar
     9     2     3   ar
    10     3     4   ar
    11     4     5   ar
    12     5     6   ar
    13     6     7   ar
    14     7     8    1
    15     7     9   ar
    16     9    10   ar
    17    11    10    1
    18    11    12    1
    19    12    13    1
    20    13    14    1
    21    14    15    1
    22    15    16    1
    23    16    17   am
    24    17    18    2
    25    17    20    1
    26    20    21    2
    27    21    22    1
    28    22    23    1
    29    23    24    1
    30    23    25    1
    31    16    19    1
    32    33    34   ar
    33    34    35   ar
    34    35    36   ar
    35    36    31   ar
    36    10     1   ar
    37    19    11    1
    38     9     3   ar
    39    28    29    1
@<TRIPOS>MOLECULE
*****
 36 39 0 0 0
SMALL
GASTEIGER

@<TRIPOS>ATOM
      1 C          63.1314   86.9958   13.0416 C.ar    1  UNL1        0.2039
      2 N          64.0263   87.5441   14.1132 N.ar    1  UNL1       -0.2135
      3 C          64.2832   88.9901   13.8078 C.ar    1  UNL1        0.0996
      4 C          65.0923   90.0368   14.5145 C.ar    1  UNL1        0.0206
      5 C          65.1652   91.4290   13.9608 C.ar    1  UNL1        0.0013
      6 C          64.4290   91.7743   12.7003 C.ar    1  UNL1       -0.0027
      7 C          63.6199   90.7275   11.9936 C.ar    1  UNL1       -0.0045
      8 C          62.8837   91.0728   10.7331 C.3     1  UNL1        0.0326
      9 C          63.5470   89.3354   12.5473 C.ar    1  UNL1        0.0758
     10 N          62.8352   88.1029   12.0738 N.ar    1  UNL1       -0.2999
     11 C          61.9776   87.9962   10.8477 C.3     1  UNL1        0.1078
     12 C          60.9519   89.0770   10.6747 C.3     1  UNL1        0.0245
     13 C          59.9545   89.2514    9.5681 C.3     1  UNL1        0.0037
     14 C          59.7363   88.3880    8.3610 C.3     1  UNL1        0.0216
     15 C          60.4618   87.1371    7.9625 C.3     1  UNL1        0.0938
     16 N          61.5845   86.4404    8.6726 N.am    1  UNL1       -0.2742
     17 C          62.1010   85.1971    8.0113 C.2     1  UNL1        0.2489
     18 O          63.2230   84.4244    8.6390 O.2     1  UNL1       -0.2699
     19 C          62.2591   86.8229    9.9566 C.3     1  UNL1        0.1162
     20 C          61.4953   84.7265    6.7222 C.2     1  UNL1        0.0548
     21 C          62.3765   84.4178    5.5482 C.2     1  UNL1       -0.0041
     22 C          61.7710   83.9472    4.2591 C.3     1  UNL1        0.0991
     23 N          61.9780   84.7369    3.0007 N.3     1  UNL1       -0.2665
     24 C          61.2389   84.3628    1.7503 C.3     1  UNL1        0.0899
     25 C          62.9242   85.9008    2.9929 C.3     1  UNL1        0.0899
     26 C          63.5089   84.4434   13.3460 C.2     1  UNL1        0.2517
     27 O          64.9049   84.7072   13.8272 O.2     1  UNL1       -0.2697
     28 N          62.6221   85.5876   12.9532 N.am    1  UNL1       -0.2518
     29 H          61.7059   85.4145   12.6374 H       1  UNL1        0.1580
     30 C          62.9484   80.0199   10.6779 C.3     1  UNL1        0.0521
     31 C          62.7194   80.8235   11.9236 C.ar    1  UNL1        0.0595
     32 C          63.2287   82.2316   12.0119 C.ar    1  UNL1        0.0193
     33 C          62.9996   83.0352   13.2577 C.ar    1  UNL1        0.0565
     34 C          62.2613   82.4307   14.4150 C.ar    1  UNL1        0.0252
     35 C          61.7521   81.0226   14.3266 C.ar    1  UNL1        0.0986
     36 N          61.9811   80.2190   13.0810 N.ar    1  UNL1       -0.2481
@<TRIPOS>BOND
     1    30    31    1
     2    31    32   ar
     3    32    33   ar
     4    33    26    1
     5    26    27    2
     6    26    28   am
     7    28     1    1
     8     1     2   ar
     9     2     3   ar
    10     3     4   ar
    11     4     5   ar
    12     5     6   ar
    13     6     7   ar
    14     7     8    1
    15     7     9   ar
    16     9    10   ar
    17    11    10    1
    18    11    12    1
    19    12    13    1
    20    13    14    1
    21    14    15    1
    22    15    16    1
    23    16    17   am
    24    17    18    2
    25    17    20    1
    26    20    21    2
    27    21    22    1
    28    22    23    1
    29    23    24    1
    30    23    25    1
    31    16    19    1
    32    33    34   ar
    33    34    35   ar
    34    35    36   ar
    35    36    31   ar
    36    10     1   ar
    37    19    11    1
    38     9     3   ar
    39    28    29    1
@<TRIPOS>MOLECULE
*****
 36 39 0 0 0
SMALL
GASTEIGER

@<TRIPOS>ATOM
      1 C          64.9994   90.5076   14.0813 C.ar    1  UNL1        0.2039
      2 N          65.8876   91.6818   14.3684 N.ar    1  UNL1       -0.2135
      3 C          65.8361   92.6023   13.1852 C.ar    1  UNL1        0.0996
      4 C          66.5081   93.9135   12.9037 C.ar    1  UNL1        0.0206
      5 C          66.2600   94.6194   11.6036 C.ar    1  UNL1        0.0013
      6 C          65.3399   94.0142   10.5852 C.ar    1  UNL1       -0.0027
      7 C          64.6679   92.7031   10.8668 C.ar    1  UNL1       -0.0045
      8 C          63.7478   92.0979    9.8484 C.3     1  UNL1        0.0326
      9 C          64.9160   91.9971   12.1668 C.ar    1  UNL1        0.0758
     10 N          64.3989   90.7026   12.7206 N.ar    1  UNL1       -0.2999
     11 C          63.4482   89.7671   12.0342 C.3     1  UNL1        0.1078
     12 C          62.4880   90.4041   11.0737 C.3     1  UNL1        0.0245
     13 C          61.4259   89.7497   10.2409 C.3     1  UNL1        0.0037
     14 C          61.0616   88.2968   10.1627 C.3     1  UNL1        0.0216
     15 C          61.6694   87.1393   10.8982 C.3     1  UNL1        0.0938
     16 N          62.7917   87.1489   11.8934 N.am    1  UNL1       -0.2742
     17 C          63.1728   85.8124   12.4576 C.2     1  UNL1        0.2489
     18 O          64.2831   85.7108   13.4610 O.2     1  UNL1       -0.2699
     19 C          63.5833   88.3185   12.3989 C.3     1  UNL1        0.1162
     20 C          62.4434   84.5774   12.0185 C.2     1  UNL1        0.0548
     21 C          62.9203   83.2266   12.4635 C.2     1  UNL1       -0.0041
     22 C          62.1910   81.9916   12.0243 C.3     1  UNL1        0.0991
     23 N          61.9408   80.8811   13.0011 N.3     1  UNL1       -0.2665
     24 C          60.9664   81.0758   14.1247 C.3     1  UNL1        0.0899
     25 C          62.6650   79.5757   12.8540 C.3     1  UNL1        0.0899
     26 C          63.3715   89.0688   15.5059 C.2     1  UNL1        0.2517
     27 O          62.2330   89.9591   15.1043 O.2     1  UNL1       -0.2697
     28 N          64.7546   89.3431   14.9944 N.am    1  UNL1       -0.2518
     29 H          65.5018   88.7587   15.2581 H       1  UNL1        0.1580
     30 C          62.8193   83.9523   16.2247 C.3     1  UNL1        0.0521
     31 C          62.8507   85.3459   16.7784 C.ar    1  UNL1        0.0595
     32 C          63.0954   86.5105   15.8653 C.ar    1  UNL1        0.0193
     33 C          63.1267   87.9042   16.4191 C.ar    1  UNL1        0.0565
     34 C          62.9133   88.1333   17.8860 C.ar    1  UNL1        0.0252
     35 C          62.6685   86.9687   18.7992 C.ar    1  UNL1        0.0986
     36 N          62.6372   85.5751   18.2454 N.ar    1  UNL1       -0.2481
@<TRIPOS>BOND
     1    30    31    1
     2    31    32   ar
     3    32    33   ar
     4    33    26    1
     5    26    27    2
     6    26    28   am
     7    28     1    1
     8     1     2   ar
     9     2     3   ar
    10     3     4   ar
    11     4     5   ar
    12     5     6   ar
    13     6     7   ar
    14     7     8    1
    15     7     9   ar
    16     9    10   ar
    17    11    10    1
    18    11    12    1
    19    12    13    1
    20    13    14    1
    21    14    15    1
    22    15    16    1
    23    16    17   am
    24    17    18    2
    25    17    20    1
    26    20    21    2
    27    21    22    1
    28    22    23    1
    29    23    24    1
    30    23    25    1
    31    16    19    1
    32    33    34   ar
    33    34    35   ar
    34    35    36   ar
    35    36    31   ar
    36    10     1   ar
    37    19    11    1
    38     9     3   ar
    39    28    29    1
