@<TRIPOS>MOLECULE
*****
 31 35 0 0 0
SMALL
GASTEIGER

@<TRIPOS>ATOM
      1 C          63.5351   89.1387    9.7289 C.3     1  UNL1        0.1332
      2 N          62.4172   89.1452   10.7290 N.ar    1  UNL1       -0.2965
      3 C          62.4723   89.7303   12.1091 C.ar    1  UNL1        0.1670
      4 N          61.1370   89.5145   12.7576 N.ar    1  UNL1       -0.1290
      5 N          60.2568   88.7961   11.7784 N.ar    1  UNL1       -0.1330
      6 C          61.0480   88.5678   10.5246 C.ar    1  UNL1        0.1464
      7 C          63.6549   90.4116   12.7314 C.ar    1  UNL1        0.0465
      8 C          64.1532   91.7104   12.1704 C.ar    1  UNL1        0.0039
      9 C          65.3359   92.3916   12.7927 C.ar    1  UNL1        0.0017
     10 C          66.0202   91.7739   13.9760 C.ar    1  UNL1        0.0200
     11 C          65.5219   90.4752   14.5371 C.ar    1  UNL1        0.0130
     12 C          64.3393   89.7940   13.9147 C.ar    1  UNL1        0.0606
     13 CL         63.8409   88.4951   14.4758 Cl      1  UNL1       -0.0821
     14 C          67.2029   92.4552   14.5983 C.ar    1  UNL1        0.1005
     15 C          67.0053   93.4035   15.7436 C.ar    1  UNL1        0.1179
     16 N          68.1880   94.0847   16.3659 N.ar    1  UNL1       -0.2391
     17 C          69.5683   93.8177   15.8429 C.ar    1  UNL1        0.1195
     18 C          69.7658   92.8694   14.6975 C.ar    1  UNL1        0.1195
     19 N          68.5832   92.1882   14.0753 N.ar    1  UNL1       -0.2406
     20 C          60.5563   87.8826    9.2842 C.3     1  UNL1        0.0765
     21 C          59.7162   89.0809    8.9551 C.3     1  UNL1        0.0466
     22 C          59.2245   88.3956    7.7148 C.3     1  UNL1        0.1625
     23 F          58.2828   88.7585    6.6050 F       1  UNL1       -0.2372
     24 C          60.0645   87.1973    8.0438 C.3     1  UNL1        0.0466
     25 C          61.3963   86.6842    9.6132 C.ar    1  UNL1       -0.0158
     26 C          61.3630   86.1015   10.9950 C.ar    1  UNL1       -0.0030
     27 C          62.2030   84.9031   11.3240 C.ar    1  UNL1        0.0111
     28 C          63.0765   84.2875   10.2713 C.ar    1  UNL1        0.0577
     29 CL         63.9165   83.0892   10.6003 Cl      1  UNL1       -0.0822
     30 C          63.1098   84.8702    8.8895 C.ar    1  UNL1        0.0111
     31 C          62.2697   86.0687    8.5605 C.ar    1  UNL1       -0.0030
@<TRIPOS>BOND
     1     1     2    1
     2     2     3   ar
     3     3     7    1
     4     7     8   ar
     5     8     9   ar
     6     9    10   ar
     7    10    14    1
     8    14    15   ar
     9    15    16   ar
    10    16    17   ar
    11    17    18   ar
    12    18    19   ar
    13    10    11   ar
    14    11    12   ar
    15    12    13    1
    16     3     4   ar
    17     4     5   ar
    18     5     6   ar
    19     6    20    1
    20    20    25    1
    21    25    26   ar
    22    26    27   ar
    23    27    28   ar
    24    28    29    1
    25    28    30   ar
    26    30    31   ar
    27    20    21    1
    28    21    22    1
    29    22    23    1
    30    22    24    1
    31     6     2   ar
    32    24    20    1
    33    12     7   ar
    34    31    25   ar
    35    19    14   ar
@<TRIPOS>MOLECULE
*****
 31 35 0 0 0
SMALL
GASTEIGER

@<TRIPOS>ATOM
      1 C          64.3975   89.5855   15.9996 C.3     1  UNL1        0.1332
      2 N          63.9586   88.7099   14.8635 N.ar    1  UNL1       -0.2965
      3 C          63.9974   89.0691   13.4077 C.ar    1  UNL1        0.1670
      4 N          63.4666   87.9026   12.6282 N.ar    1  UNL1       -0.1290
      5 N          63.0997   86.8226   13.6023 N.ar    1  UNL1       -0.1330
      6 C          63.4038   87.3215   14.9839 C.ar    1  UNL1        0.1464
      7 C          64.4820   90.3669   12.8323 C.ar    1  UNL1        0.0465
      8 C          65.5171   91.1707   13.5620 C.ar    1  UNL1        0.0039
      9 C          66.0016   92.4685   12.9866 C.ar    1  UNL1        0.0017
     10 C          65.4511   92.9623   11.6816 C.ar    1  UNL1        0.0200
     11 C          64.4160   92.1585   10.9520 C.ar    1  UNL1        0.0130
     12 C          63.9315   90.8608   11.5273 C.ar    1  UNL1        0.0606
     13 CL         62.8963   90.0568   10.7977 Cl      1  UNL1       -0.0821
     14 C          65.9357   94.2602   11.1063 C.ar    1  UNL1        0.1005
     15 C          66.4702   94.3065    9.7055 C.ar    1  UNL1        0.1179
     16 N          66.9548   95.6043    9.1302 N.ar    1  UNL1       -0.2391
     17 C          66.9048   96.8557    9.9556 C.ar    1  UNL1        0.1195
     18 C          66.3703   96.8094   11.3564 C.ar    1  UNL1        0.1195
     19 N          65.8857   95.5116   11.9317 N.ar    1  UNL1       -0.2406
     20 C          63.1905   86.5649   16.2614 C.3     1  UNL1        0.0765
     21 C          63.0074   87.8591   16.9973 C.3     1  UNL1        0.0466
     22 C          62.7941   87.1025   18.2748 C.3     1  UNL1        0.1625
     23 F          62.5139   87.4826   19.6985 F       1  UNL1       -0.2372
     24 C          62.9772   85.8083   17.5388 C.3     1  UNL1        0.0466
     25 C          63.3736   85.2708   15.5254 C.ar    1  UNL1       -0.0158
     26 C          64.6698   84.9813   14.8282 C.ar    1  UNL1       -0.0030
     27 C          64.8528   83.6871   14.0923 C.ar    1  UNL1        0.0111
     28 C          63.7397   82.6824   14.0536 C.ar    1  UNL1        0.0577
     29 CL         63.9227   81.3882   13.3176 Cl      1  UNL1       -0.0822
     30 C          62.4434   82.9718   14.7507 C.ar    1  UNL1        0.0111
     31 C          62.2604   84.2661   15.4867 C.ar    1  UNL1       -0.0030
@<TRIPOS>BOND
     1     1     2    1
     2     2     3   ar
     3     3     7    1
     4     7     8   ar
     5     8     9   ar
     6     9    10   ar
     7    10    14    1
     8    14    15   ar
     9    15    16   ar
    10    16    17   ar
    11    17    18   ar
    12    18    19   ar
    13    10    11   ar
    14    11    12   ar
    15    12    13    1
    16     3     4   ar
    17     4     5   ar
    18     5     6   ar
    19     6    20    1
    20    20    25    1
    21    25    26   ar
    22    26    27   ar
    23    27    28   ar
    24    28    29    1
    25    28    30   ar
    26    30    31   ar
    27    20    21    1
    28    21    22    1
    29    22    23    1
    30    22    24    1
    31     6     2   ar
    32    24    20    1
    33    12     7   ar
    34    31    25   ar
    35    19    14   ar
@<TRIPOS>MOLECULE
*****
 31 35 0 0 0
SMALL
GASTEIGER

@<TRIPOS>ATOM
      1 C          70.4459   75.6366   15.3140 C.3     1  UNL1        0.1332
      2 N          71.6377   74.8598   14.8382 N.ar    1  UNL1       -0.2965
      3 C          72.5988   75.2869   13.7686 C.ar    1  UNL1        0.1670
      4 N          73.6326   74.2106   13.6179 N.ar    1  UNL1       -0.1290
      5 N          73.3105   73.1184   14.5942 N.ar    1  UNL1       -0.1330
      6 C          72.0775   73.5196   15.3484 C.ar    1  UNL1        0.1464
      7 C          72.5369   76.5657   12.9871 C.ar    1  UNL1        0.0465
      8 C          71.9936   76.5647   11.5890 C.ar    1  UNL1        0.0039
      9 C          71.9318   77.8435   10.8075 C.ar    1  UNL1        0.0017
     10 C          72.4131   79.1234   11.4241 C.ar    1  UNL1        0.0200
     11 C          72.9564   79.1244   12.8223 C.ar    1  UNL1        0.0130
     12 C          73.0183   77.8456   13.6037 C.ar    1  UNL1        0.0606
     13 CL         73.5615   77.8466   15.0020 Cl      1  UNL1       -0.0821
     14 C          72.3512   80.4022   10.6426 C.ar    1  UNL1        0.1005
     15 C          72.6636   81.7070   11.3133 C.ar    1  UNL1        0.1179
     16 N          72.6017   82.9858   10.5318 N.ar    1  UNL1       -0.2391
     17 C          72.2274   82.9598    9.0795 C.ar    1  UNL1        0.1195
     18 C          71.9150   81.6550    8.4087 C.ar    1  UNL1        0.1195
     19 N          71.9769   80.3762    9.1903 N.ar    1  UNL1       -0.2406
     20 C          71.4028   72.7209   16.4240 C.3     1  UNL1        0.0765
     21 C          71.8171   73.7418   17.4419 C.3     1  UNL1        0.0466
     22 C          71.1424   72.9431   18.5175 C.3     1  UNL1        0.1625
     23 F          70.9583   73.1002   19.9979 F       1  UNL1       -0.2372
     24 C          70.7282   71.9222   17.4996 C.3     1  UNL1        0.0466
     25 C          70.9886   71.7000   15.4061 C.ar    1  UNL1       -0.0158
     26 C          70.2383   72.1259   14.1791 C.ar    1  UNL1       -0.0030
     27 C          69.8241   71.1050   13.1611 C.ar    1  UNL1        0.0111
     28 C          70.1602   69.6581   13.3702 C.ar    1  UNL1        0.0577
     29 CL         69.7460   68.6372   12.3523 Cl      1  UNL1       -0.0822
     30 C          70.9106   69.2322   14.5972 C.ar    1  UNL1        0.0111
     31 C          71.3248   70.2532   15.6152 C.ar    1  UNL1       -0.0030
@<TRIPOS>BOND
     1     1     2    1
     2     2     3   ar
     3     3     7    1
     4     7     8   ar
     5     8     9   ar
     6     9    10   ar
     7    10    14    1
     8    14    15   ar
     9    15    16   ar
    10    16    17   ar
    11    17    18   ar
    12    18    19   ar
    13    10    11   ar
    14    11    12   ar
    15    12    13    1
    16     3     4   ar
    17     4     5   ar
    18     5     6   ar
    19     6    20    1
    20    20    25    1
    21    25    26   ar
    22    26    27   ar
    23    27    28   ar
    24    28    29    1
    25    28    30   ar
    26    30    31   ar
    27    20    21    1
    28    21    22    1
    29    22    23    1
    30    22    24    1
    31     6     2   ar
    32    24    20    1
    33    12     7   ar
    34    31    25   ar
    35    19    14   ar
@<TRIPOS>MOLECULE
*****
 31 35 0 0 0
SMALL
GASTEIGER

@<TRIPOS>ATOM
      1 C          62.8487   85.4445    8.9111 C.3     1  UNL1        0.1332
      2 N          62.1214   85.8114   10.1706 N.ar    1  UNL1       -0.2965
      3 C          61.0825   86.8847   10.3081 C.ar    1  UNL1        0.1670
      4 N          60.6243   86.9060   11.7362 N.ar    1  UNL1       -0.1290
      5 N          61.3800   85.8460   12.4814 N.ar    1  UNL1       -0.1330
      6 C          62.3052   85.1694   11.5137 C.ar    1  UNL1        0.1464
      7 C          60.5886   87.7795    9.2102 C.ar    1  UNL1        0.0465
      8 C          59.7413   87.2166    8.1078 C.ar    1  UNL1        0.0039
      9 C          59.2474   88.1114    7.0100 C.ar    1  UNL1        0.0017
     10 C          59.6008   89.5692    7.0145 C.ar    1  UNL1        0.0200
     11 C          60.4481   90.1321    8.1168 C.ar    1  UNL1        0.0130
     12 C          60.9419   89.2373    9.2146 C.ar    1  UNL1        0.0606
     13 CL         61.7893   89.8002   10.3171 Cl      1  UNL1       -0.0821
     14 C          59.1069   90.4640    5.9165 C.ar    1  UNL1        0.1005
     15 C          60.0835   91.1110    4.9798 C.ar    1  UNL1        0.1179
     16 N          59.5896   92.0058    3.8818 N.ar    1  UNL1       -0.2391
     17 C          58.1190   92.2536    3.7207 C.ar    1  UNL1        0.1195
     18 C          57.1423   91.6066    4.6576 C.ar    1  UNL1        0.1195
     19 N          57.6363   90.7118    5.7554 N.ar    1  UNL1       -0.2406
     20 C          63.2487   84.0479   11.8332 C.3     1  UNL1        0.0765
     21 C          63.1848   83.5880   10.4069 C.3     1  UNL1        0.0466
     22 C          64.1282   82.4664   10.7263 C.3     1  UNL1        0.1625
     23 F          64.7502   81.3481    9.9436 F       1  UNL1       -0.2372
     24 C          64.1921   82.9264   12.1526 C.3     1  UNL1        0.0466
     25 C          63.3125   84.5078   13.2595 C.ar    1  UNL1       -0.0158
     26 C          64.1543   85.6933   13.6283 C.ar    1  UNL1       -0.0030
     27 C          64.2181   86.1533   15.0546 C.ar    1  UNL1        0.0111
     28 C          63.4401   85.4277   16.1122 C.ar    1  UNL1        0.0577
     29 CL         63.5040   85.8876   17.5385 Cl      1  UNL1       -0.0822
     30 C          62.5984   84.2422   15.7434 C.ar    1  UNL1        0.0111
     31 C          62.5345   83.7823   14.3170 C.ar    1  UNL1       -0.0030
@<TRIPOS>BOND
     1     1     2    1
     2     2     3   ar
     3     3     7    1
     4     7     8   ar
     5     8     9   ar
     6     9    10   ar
     7    10    14    1
     8    14    15   ar
     9    15    16   ar
    10    16    17   ar
    11    17    18   ar
    12    18    19   ar
    13    10    11   ar
    14    11    12   ar
    15    12    13    1
    16     3     4   ar
    17     4     5   ar
    18     5     6   ar
    19     6    20    1
    20    20    25    1
    21    25    26   ar
    22    26    27   ar
    23    27    28   ar
    24    28    29    1
    25    28    30   ar
    26    30    31   ar
    27    20    21    1
    28    21    22    1
    29    22    23    1
    30    22    24    1
    31     6     2   ar
    32    24    20    1
    33    12     7   ar
    34    31    25   ar
    35    19    14   ar
