@<TRIPOS>MOLECULE
*****
 27 30 0 0 0
SMALL
GASTEIGER

@<TRIPOS>ATOM
      1 C          63.6144   90.3212   12.4806 C.ar    1  UNL1        0.0366
      2 C          63.3312   88.8517   12.3797 C.ar    1  UNL1       -0.0012
      3 C          63.8205   87.9184   13.4472 C.ar    1  UNL1       -0.0223
      4 C          64.5932   88.4547   14.6157 C.ar    1  UNL1       -0.0012
      5 C          64.8765   89.9242   14.7166 C.ar    1  UNL1        0.0366
      6 C          64.3871   90.8575   13.6491 C.ar    1  UNL1        0.1385
      7 C          63.5372   86.4489   13.3462 C.3     1  UNL1        0.0224
      8 C          62.8329   85.9020   12.1400 C.3     1  UNL1        0.0057
      9 C          62.5496   84.4325   12.0389 C.3     1  UNL1        0.0163
     10 C          62.9705   83.5098   13.1441 C.3     1  UNL1        0.0575
     11 C          63.6748   84.0566   14.3504 C.3     1  UNL1        0.0163
     12 C          63.9581   85.5262   14.4514 C.3     1  UNL1        0.0057
     13 N          62.6872   82.0403   13.0431 N.3     1  UNL1       -0.2740
     14 C          62.0117   81.1989   14.0851 C.3     1  UNL1        0.0721
     15 C          61.9366   79.7928   13.5684 C.3     1  UNL1        0.0188
     16 C          62.5657   79.7650   12.2069 C.3     1  UNL1        0.0188
     17 C          63.0296   81.1541   11.8823 C.3     1  UNL1        0.0721
     18 O          64.6704   92.3270   13.7501 O.3     1  UNL1       -0.4754
     19 C          65.9988   92.8014   14.2604 C.3     1  UNL1        0.2068
     20 C          66.6635   93.9894   13.6305 C.3     1  UNL1        0.0646
     21 C          66.2444   94.4467   12.2648 C.3     1  UNL1        0.0759
     22 N          66.9610   93.9359   11.0501 N.3     1  UNL1       -0.2726
     23 C          67.4003   92.5031   10.9856 C.3     1  UNL1        0.0721
     24 C          68.1169   91.9923    9.7709 C.3     1  UNL1        0.0174
     25 C          68.3942   92.9143    8.6207 C.3     1  UNL1        0.0029
     26 C          67.9550   94.3471    8.6852 C.3     1  UNL1        0.0174
     27 C          67.2384   94.8579    9.8999 C.3     1  UNL1        0.0721
@<TRIPOS>BOND
     1     1     2   ar
     2     2     3   ar
     3     7     3    1
     4     7     8    1
     5     8     9    1
     6     9    10    1
     7    10    13    1
     8    13    14    1
     9    14    15    1
    10    15    16    1
    11    16    17    1
    12    10    11    1
    13    11    12    1
    14     3     4   ar
    15     4     5   ar
    16     5     6   ar
    17     6    18    1
    18    18    19    1
    19    19    20    1
    20    20    21    1
    21    21    22    1
    22    22    23    1
    23    23    24    1
    24    24    25    1
    25    25    26    1
    26    26    27    1
    27     6     1   ar
    28    27    22    1
    29    12     7    1
    30    17    13    1
@<TRIPOS>MOLECULE
*****
 27 30 0 0 0
SMALL
GASTEIGER

@<TRIPOS>ATOM
      1 C          63.5918   90.4197   12.3453 C.ar    1  UNL1        0.0366
      2 C          63.2858   88.9516   12.3131 C.ar    1  UNL1       -0.0012
      3 C          63.8142   88.0515   13.3904 C.ar    1  UNL1       -0.0223
      4 C          64.6487   88.6195   14.4999 C.ar    1  UNL1       -0.0012
      5 C          64.9547   90.0875   14.5321 C.ar    1  UNL1        0.0366
      6 C          64.4263   90.9876   13.4548 C.ar    1  UNL1        0.1385
      7 C          63.5081   86.5834   13.3582 C.3     1  UNL1        0.0224
      8 C          62.7742   85.9958   12.1894 C.3     1  UNL1        0.0057
      9 C          62.4681   84.5277   12.1571 C.3     1  UNL1        0.0163
     10 C          62.8959   83.6472   13.2937 C.3     1  UNL1        0.0575
     11 C          63.6299   84.2348   14.4625 C.3     1  UNL1        0.0163
     12 C          63.9360   85.7029   14.4947 C.3     1  UNL1        0.0057
     13 N          62.5898   82.1791   13.2614 N.3     1  UNL1       -0.2740
     14 C          61.6501   81.4541   14.1786 C.3     1  UNL1        0.0721
     15 C          61.6492   80.0052   13.7904 C.3     1  UNL1        0.0188
     16 C          62.5883   79.8348   12.6332 C.3     1  UNL1        0.0188
     17 C          63.1696   81.1784   12.3063 C.3     1  UNL1        0.0721
     18 O          64.7324   92.4558   13.4870 O.3     1  UNL1       -0.4754
     19 C          66.1547   92.9235   13.5773 C.3     1  UNL1        0.2068
     20 C          67.1411   92.5341   12.5165 C.3     1  UNL1        0.0646
     21 C          66.8067   92.7410   11.0690 C.3     1  UNL1        0.0759
     22 N          66.9068   94.1102   10.4644 N.3     1  UNL1       -0.2726
     23 C          67.5299   94.2890    9.1118 C.3     1  UNL1        0.0721
     24 C          67.6301   95.6581    8.5072 C.3     1  UNL1        0.0174
     25 C          67.1071   96.8484    9.2553 C.3     1  UNL1        0.0029
     26 C          66.4839   96.6696   10.6080 C.3     1  UNL1        0.0174
     27 C          66.3838   95.3005   11.2126 C.3     1  UNL1        0.0721
@<TRIPOS>BOND
     1     1     2   ar
     2     2     3   ar
     3     7     3    1
     4     7     8    1
     5     8     9    1
     6     9    10    1
     7    10    13    1
     8    13    14    1
     9    14    15    1
    10    15    16    1
    11    16    17    1
    12    10    11    1
    13    11    12    1
    14     3     4   ar
    15     4     5   ar
    16     5     6   ar
    17     6    18    1
    18    18    19    1
    19    19    20    1
    20    20    21    1
    21    21    22    1
    22    22    23    1
    23    23    24    1
    24    24    25    1
    25    25    26    1
    26    26    27    1
    27     6     1   ar
    28    27    22    1
    29    12     7    1
    30    17    13    1
@<TRIPOS>MOLECULE
*****
 27 30 0 0 0
SMALL
GASTEIGER

@<TRIPOS>ATOM
      1 C          60.0535   88.7830   11.3895 C.ar    1  UNL1        0.0366
      2 C          61.1731   89.3829   12.1873 C.ar    1  UNL1       -0.0012
      3 C          62.4016   89.8902   11.4918 C.ar    1  UNL1       -0.0223
      4 C          62.5104   89.7975    9.9987 C.ar    1  UNL1       -0.0012
      5 C          61.3907   89.1976    9.2010 C.ar    1  UNL1        0.0366
      6 C          60.1623   88.6903    9.8964 C.ar    1  UNL1        0.1385
      7 C          63.5213   90.4901   12.2897 C.3     1  UNL1        0.0224
      8 C          63.8770   89.9188   13.6302 C.3     1  UNL1        0.0057
      9 C          64.9966   90.5186   14.4280 C.3     1  UNL1        0.0163
     10 C          65.7606   91.6899   13.8853 C.3     1  UNL1        0.0575
     11 C          65.4049   92.2612   12.5447 C.3     1  UNL1        0.0163
     12 C          64.2852   91.6613   11.7469 C.3     1  UNL1        0.0057
     13 N          66.8802   92.2898   14.6831 N.3     1  UNL1       -0.2740
     14 C          67.9386   91.5301   15.4265 C.3     1  UNL1        0.0721
     15 C          68.8506   92.5255   16.0805 C.3     1  UNL1        0.0188
     16 C          68.3558   93.9003   15.7412 C.3     1  UNL1        0.0188
     17 C          67.1380   93.7546   14.8776 C.3     1  UNL1        0.0721
     18 O          59.0426   88.0904    9.0986 O.3     1  UNL1       -0.4754
     19 C          59.3435   87.3072    7.8552 C.3     1  UNL1        0.2068
     20 C          60.0882   86.0085    7.9486 C.3     1  UNL1        0.0646
     21 C          61.5794   86.0090    8.1105 C.3     1  UNL1        0.0759
     22 N          62.2054   85.3347    9.2952 N.3     1  UNL1       -0.2726
     23 C          61.7531   85.6834   10.6823 C.3     1  UNL1        0.0721
     24 C          62.3791   85.0092   11.8670 C.3     1  UNL1        0.0174
     25 C          63.4574   83.9863   11.6646 C.3     1  UNL1        0.0029
     26 C          63.9097   83.6376   10.2776 C.3     1  UNL1        0.0174
     27 C          63.2837   84.3118    9.0929 C.3     1  UNL1        0.0721
@<TRIPOS>BOND
     1     1     2   ar
     2     2     3   ar
     3     7     3    1
     4     7     8    1
     5     8     9    1
     6     9    10    1
     7    10    13    1
     8    13    14    1
     9    14    15    1
    10    15    16    1
    11    16    17    1
    12    10    11    1
    13    11    12    1
    14     3     4   ar
    15     4     5   ar
    16     5     6   ar
    17     6    18    1
    18    18    19    1
    19    19    20    1
    20    20    21    1
    21    21    22    1
    22    22    23    1
    23    23    24    1
    24    24    25    1
    25    25    26    1
    26    26    27    1
    27     6     1   ar
    28    27    22    1
    29    12     7    1
    30    17    13    1
@<TRIPOS>MOLECULE
*****
 27 30 0 0 0
SMALL
GASTEIGER

@<TRIPOS>ATOM
      1 C          62.3556   85.0557   12.3572 C.ar    1  UNL1        0.0366
      2 C          61.6388   86.0222   11.4617 C.ar    1  UNL1       -0.0012
      3 C          61.8548   85.9719    9.9782 C.ar    1  UNL1       -0.0223
      4 C          62.7877   84.9550    9.3902 C.ar    1  UNL1       -0.0012
      5 C          63.5045   83.9885   10.2857 C.ar    1  UNL1        0.0366
      6 C          63.2885   84.0388   11.7692 C.ar    1  UNL1        0.1385
      7 C          61.1380   86.9384    9.0826 C.3     1  UNL1        0.0224
      8 C          61.2162   88.4116    9.3539 C.3     1  UNL1        0.0057
      9 C          60.4994   89.3782    8.4584 C.3     1  UNL1        0.0163
     10 C          59.7043   88.8716    7.2917 C.3     1  UNL1        0.0575
     11 C          59.6261   87.3984    7.0204 C.3     1  UNL1        0.0163
     12 C          60.3429   86.4318    7.9160 C.3     1  UNL1        0.0057
     13 N          58.9875   89.8382    6.3962 N.3     1  UNL1       -0.2740
     14 C          57.5023   89.9300    6.2074 C.3     1  UNL1        0.0721
     15 C          57.2269   91.0312    5.2269 C.3     1  UNL1        0.0188
     16 C          58.5419   91.6200    4.8097 C.3     1  UNL1        0.0188
     17 C          59.6300   90.8827    5.5324 C.3     1  UNL1        0.0721
     18 O          64.0053   83.0722   12.6647 O.3     1  UNL1       -0.4754
     19 C          63.8854   83.1996   14.1545 C.3     1  UNL1        0.2068
     20 C          64.4944   84.3760   14.8581 C.3     1  UNL1        0.0646
     21 C          63.6734   85.1816   15.8209 C.3     1  UNL1        0.0759
     22 N          63.6828   86.6796   15.7439 N.3     1  UNL1       -0.2726
     23 C          64.3091   87.3662   14.5665 C.3     1  UNL1        0.0721
     24 C          64.3185   88.8641   14.4895 C.3     1  UNL1        0.0174
     25 C          63.7016   89.6755   15.5899 C.3     1  UNL1        0.0029
     26 C          63.0753   88.9890   16.7674 C.3     1  UNL1        0.0174
     27 C          63.0659   87.4910   16.8444 C.3     1  UNL1        0.0721
@<TRIPOS>BOND
     1     1     2   ar
     2     2     3   ar
     3     7     3    1
     4     7     8    1
     5     8     9    1
     6     9    10    1
     7    10    13    1
     8    13    14    1
     9    14    15    1
    10    15    16    1
    11    16    17    1
    12    10    11    1
    13    11    12    1
    14     3     4   ar
    15     4     5   ar
    16     5     6   ar
    17     6    18    1
    18    18    19    1
    19    19    20    1
    20    20    21    1
    21    21    22    1
    22    22    23    1
    23    23    24    1
    24    24    25    1
    25    25    26    1
    26    26    27    1
    27     6     1   ar
    28    27    22    1
    29    12     7    1
    30    17    13    1
@<TRIPOS>MOLECULE
*****
 27 30 0 0 0
SMALL
GASTEIGER

@<TRIPOS>ATOM
      1 C          64.9139   90.3522   14.2813 C.ar    1  UNL1        0.0366
      2 C          64.6250   88.9203   13.9408 C.ar    1  UNL1       -0.0012
      3 C          63.8371   88.0677   14.8907 C.ar    1  UNL1       -0.0223
      4 C          63.3382   88.6470   16.1812 C.ar    1  UNL1       -0.0012
      5 C          63.6272   90.0790   16.5218 C.ar    1  UNL1        0.0366
      6 C          64.4150   90.9316   15.5718 C.ar    1  UNL1        0.1385
      7 C          63.5482   86.6357   14.5501 C.3     1  UNL1        0.0224
      8 C          63.3246   86.2349   13.1221 C.3     1  UNL1        0.0057
      9 C          63.0357   84.8029   12.7814 C.3     1  UNL1        0.0163
     10 C          62.9704   83.7717   13.8689 C.3     1  UNL1        0.0575
     11 C          63.1940   84.1726   15.2969 C.3     1  UNL1        0.0163
     12 C          63.4829   85.6046   15.6375 C.3     1  UNL1        0.0057
     13 N          62.6814   82.3398   13.5282 N.3     1  UNL1       -0.2740
     14 C          63.2305   81.5848   12.3542 C.3     1  UNL1        0.0721
     15 C          62.6812   80.1898   12.4022 C.3     1  UNL1        0.0188
     16 C          61.7925   80.0827   13.6059 C.3     1  UNL1        0.0188
     17 C          61.7927   81.4115   14.3018 C.3     1  UNL1        0.0721
     18 O          64.7039   92.3636   15.9124 O.3     1  UNL1       -0.4754
     19 C          66.0871   92.7721   16.3246 C.3     1  UNL1        0.2068
     20 C          67.0246   93.3684   15.3170 C.3     1  UNL1        0.0646
     21 C          67.6699   92.4937   14.2833 C.3     1  UNL1        0.0759
     22 N          67.3903   92.7220   12.8273 N.3     1  UNL1       -0.2726
     23 C          66.3435   93.7124   12.4109 C.3     1  UNL1        0.0721
     24 C          66.0639   93.9407   10.9550 C.3     1  UNL1        0.0174
     25 C          66.8310   93.1785    9.9155 C.3     1  UNL1        0.0029
     26 C          67.8777   92.1881   10.3319 C.3     1  UNL1        0.0174
     27 C          68.1574   91.9598   11.7878 C.3     1  UNL1        0.0721
@<TRIPOS>BOND
     1     1     2   ar
     2     2     3   ar
     3     7     3    1
     4     7     8    1
     5     8     9    1
     6     9    10    1
     7    10    13    1
     8    13    14    1
     9    14    15    1
    10    15    16    1
    11    16    17    1
    12    10    11    1
    13    11    12    1
    14     3     4   ar
    15     4     5   ar
    16     5     6   ar
    17     6    18    1
    18    18    19    1
    19    19    20    1
    20    20    21    1
    21    21    22    1
    22    22    23    1
    23    23    24    1
    24    24    25    1
    25    25    26    1
    26    26    27    1
    27     6     1   ar
    28    27    22    1
    29    12     7    1
    30    17    13    1
@<TRIPOS>MOLECULE
*****
 27 30 0 0 0
SMALL
GASTEIGER

@<TRIPOS>ATOM
      1 C          63.9409   89.6865   15.4749 C.ar    1  UNL1        0.0366
      2 C          63.5007   88.8326   14.3229 C.ar    1  UNL1       -0.0012
      3 C          63.4044   89.4214   12.9467 C.ar    1  UNL1       -0.0223
      4 C          63.7482   90.8641   12.7224 C.ar    1  UNL1       -0.0012
      5 C          64.1884   91.7180   13.8743 C.ar    1  UNL1        0.0366
      6 C          64.2848   91.1292   15.2505 C.ar    1  UNL1        0.1385
      7 C          62.9641   88.5674   11.7947 C.3     1  UNL1        0.0224
      8 C          62.6085   89.2025   10.4832 C.3     1  UNL1        0.0057
      9 C          62.1683   88.3486    9.3313 C.3     1  UNL1        0.0163
     10 C          62.0837   86.8594    9.4908 C.3     1  UNL1        0.0575
     11 C          62.4393   86.2243   10.8024 C.3     1  UNL1        0.0163
     12 C          62.8795   87.0783   11.9543 C.3     1  UNL1        0.0057
     13 N          61.6435   86.0055    8.3389 N.3     1  UNL1       -0.2740
     14 C          60.2600   85.9483    7.7620 C.3     1  UNL1        0.0721
     15 C          60.2709   84.9663    6.6281 C.3     1  UNL1        0.0188
     16 C          61.6611   84.4166    6.5043 C.3     1  UNL1        0.0188
     17 C          62.5093   85.0589    7.5617 C.3     1  UNL1        0.0721
     18 O          64.7250   91.9832   16.4025 O.3     1  UNL1       -0.4754
     19 C          66.0152   92.7440   16.3220 C.3     1  UNL1        0.2068
     20 C          67.2118   92.1238   15.6636 C.3     1  UNL1        0.0646
     21 C          67.9830   92.8928   14.6321 C.3     1  UNL1        0.0759
     22 N          67.4507   93.0156   13.2351 N.3     1  UNL1       -0.2726
     23 C          67.9192   92.0708   12.1683 C.3     1  UNL1        0.0721
     24 C          67.3869   92.1936   10.7713 C.3     1  UNL1        0.0174
     25 C          66.3863   93.2611   10.4411 C.3     1  UNL1        0.0029
     26 C          65.9178   94.2058   11.5079 C.3     1  UNL1        0.0174
     27 C          66.4501   94.0831   12.9049 C.3     1  UNL1        0.0721
@<TRIPOS>BOND
     1     1     2   ar
     2     2     3   ar
     3     7     3    1
     4     7     8    1
     5     8     9    1
     6     9    10    1
     7    10    13    1
     8    13    14    1
     9    14    15    1
    10    15    16    1
    11    16    17    1
    12    10    11    1
    13    11    12    1
    14     3     4   ar
    15     4     5   ar
    16     5     6   ar
    17     6    18    1
    18    18    19    1
    19    19    20    1
    20    20    21    1
    21    21    22    1
    22    22    23    1
    23    23    24    1
    24    24    25    1
    25    25    26    1
    26    26    27    1
    27     6     1   ar
    28    27    22    1
    29    12     7    1
    30    17    13    1
@<TRIPOS>MOLECULE
*****
 27 30 0 0 0
SMALL
GASTEIGER

@<TRIPOS>ATOM
      1 C          60.9213   93.9792    1.5897 C.ar    1  UNL1        0.0366
      2 C          59.6575   94.4626    0.9424 C.ar    1  UNL1       -0.0012
      3 C          59.0392   93.6765   -0.1755 C.ar    1  UNL1       -0.0223
      4 C          59.6848   92.4070   -0.6462 C.ar    1  UNL1       -0.0012
      5 C          60.9486   91.9236    0.0011 C.ar    1  UNL1        0.0366
      6 C          61.5668   92.7097    1.1191 C.ar    1  UNL1        0.1385
      7 C          57.7753   94.1600   -0.8228 C.3     1  UNL1        0.0224
      8 C          56.7253   93.1758   -1.2458 C.3     1  UNL1        0.0057
      9 C          55.4615   93.6592   -1.8931 C.3     1  UNL1        0.0163
     10 C          55.2476   95.1269   -2.1174 C.3     1  UNL1        0.0575
     11 C          56.2976   96.1111   -1.6945 C.3     1  UNL1        0.0163
     12 C          57.5615   95.6276   -1.0472 C.3     1  UNL1        0.0057
     13 N          53.9838   95.6103   -2.7647 N.3     1  UNL1       -0.2740
     14 C          53.8352   96.0460   -4.1923 C.3     1  UNL1        0.0721
     15 C          52.4063   96.4479   -4.4080 C.3     1  UNL1        0.0188
     16 C          51.6717   96.2606   -3.1136 C.3     1  UNL1        0.0188
     17 C          52.6467   95.7430   -2.0980 C.3     1  UNL1        0.0721
     18 O          62.8307   92.2262    1.7664 O.3     1  UNL1       -0.4754
     19 C          64.0159   93.1395    1.8724 C.3     1  UNL1        0.2068
     20 C          64.8920   93.3730    0.6775 C.3     1  UNL1        0.0646
     21 C          64.6754   94.5794   -0.1871 C.3     1  UNL1        0.0759
     22 N          63.5478   94.6005   -1.1762 N.3     1  UNL1       -0.2726
     23 C          62.5422   95.7131   -1.1434 C.3     1  UNL1        0.0721
     24 C          61.4146   95.7343   -2.1324 C.3     1  UNL1        0.0174
     25 C          61.2927   94.6429   -3.1542 C.3     1  UNL1        0.0029
     26 C          62.2983   93.5304   -3.1870 C.3     1  UNL1        0.0174
     27 C          63.4258   93.5092   -2.1980 C.3     1  UNL1        0.0721
@<TRIPOS>BOND
     1     1     2   ar
     2     2     3   ar
     3     7     3    1
     4     7     8    1
     5     8     9    1
     6     9    10    1
     7    10    13    1
     8    13    14    1
     9    14    15    1
    10    15    16    1
    11    16    17    1
    12    10    11    1
    13    11    12    1
    14     3     4   ar
    15     4     5   ar
    16     5     6   ar
    17     6    18    1
    18    18    19    1
    19    19    20    1
    20    20    21    1
    21    21    22    1
    22    22    23    1
    23    23    24    1
    24    24    25    1
    25    25    26    1
    26    26    27    1
    27     6     1   ar
    28    27    22    1
    29    12     7    1
    30    17    13    1
@<TRIPOS>MOLECULE
*****
 27 30 0 0 0
SMALL
GASTEIGER

@<TRIPOS>ATOM
      1 C          63.5003   89.1248   13.1761 C.ar    1  UNL1        0.0366
      2 C          63.3267   87.7354   12.6382 C.ar    1  UNL1       -0.0012
      3 C          63.6929   86.5523   13.4845 C.ar    1  UNL1       -0.0223
      4 C          64.2326   86.7586   14.8687 C.ar    1  UNL1       -0.0012
      5 C          64.4063   88.1480   15.4066 C.ar    1  UNL1        0.0366
      6 C          64.0401   89.3311   14.5603 C.ar    1  UNL1        0.1385
      7 C          63.5192   85.1628   12.9465 C.3     1  UNL1        0.0224
      8 C          64.0991   83.9941   13.6868 C.3     1  UNL1        0.0057
      9 C          63.9255   82.6047   13.1489 C.3     1  UNL1        0.0163
     10 C          63.1720   82.3839   11.8707 C.3     1  UNL1        0.0575
     11 C          62.5922   83.5527   11.1305 C.3     1  UNL1        0.0163
     12 C          62.7658   84.9421   11.6684 C.3     1  UNL1        0.0057
     13 N          62.9984   80.9945   11.3328 N.3     1  UNL1       -0.2740
     14 C          62.7010   79.7668   12.1416 C.3     1  UNL1        0.0721
     15 C          62.6105   78.6024   11.2004 C.3     1  UNL1        0.0188
     16 C          62.8520   79.1105    9.8098 C.3     1  UNL1        0.0188
     17 C          63.0917   80.5889    9.8917 C.3     1  UNL1        0.0721
     18 O          64.2137   90.7206   15.0982 O.3     1  UNL1       -0.4754
     19 C          65.0793   91.7046   14.3685 C.3     1  UNL1        0.2068
     20 C          66.3461   92.2016   14.9996 C.3     1  UNL1        0.0646
     21 C          67.4230   92.8035   14.1465 C.3     1  UNL1        0.0759
     22 N          67.1599   93.0900   12.6977 N.3     1  UNL1       -0.2726
     23 C          66.3421   94.2848   12.3060 C.3     1  UNL1        0.0721
     24 C          66.0790   94.5713   10.8573 C.3     1  UNL1        0.0174
     25 C          66.6337   93.6629    9.8004 C.3     1  UNL1        0.0029
     26 C          67.4515   92.4681   10.1922 C.3     1  UNL1        0.0174
     27 C          67.7147   92.1816   11.6408 C.3     1  UNL1        0.0721
@<TRIPOS>BOND
     1     1     2   ar
     2     2     3   ar
     3     7     3    1
     4     7     8    1
     5     8     9    1
     6     9    10    1
     7    10    13    1
     8    13    14    1
     9    14    15    1
    10    15    16    1
    11    16    17    1
    12    10    11    1
    13    11    12    1
    14     3     4   ar
    15     4     5   ar
    16     5     6   ar
    17     6    18    1
    18    18    19    1
    19    19    20    1
    20    20    21    1
    21    21    22    1
    22    22    23    1
    23    23    24    1
    24    24    25    1
    25    25    26    1
    26    26    27    1
    27     6     1   ar
    28    27    22    1
    29    12     7    1
    30    17    13    1
@<TRIPOS>MOLECULE
*****
 27 30 0 0 0
SMALL
GASTEIGER

@<TRIPOS>ATOM
      1 C          62.1892   85.4592   12.0733 C.ar    1  UNL1        0.0366
      2 C          61.4343   86.4021   11.1839 C.ar    1  UNL1       -0.0012
      3 C          61.6590   86.3765    9.7010 C.ar    1  UNL1       -0.0223
      4 C          62.6386   85.4079    9.1076 C.ar    1  UNL1       -0.0012
      5 C          63.3935   84.4650    9.9970 C.ar    1  UNL1        0.0366
      6 C          63.1688   84.4907   11.4798 C.ar    1  UNL1        0.1385
      7 C          60.9040   87.3194    8.8116 C.3     1  UNL1        0.0224
      8 C          60.9208   88.7925    9.0942 C.3     1  UNL1        0.0057
      9 C          60.1659   89.7354    8.2049 C.3     1  UNL1        0.0163
     10 C          59.3942   89.2053    7.0329 C.3     1  UNL1        0.0575
     11 C          59.3774   87.7323    6.7503 C.3     1  UNL1        0.0163
     12 C          60.1324   86.7893    7.6397 C.3     1  UNL1        0.0057
     13 N          58.6393   90.1483    6.1436 N.3     1  UNL1       -0.2740
     14 C          59.2390   91.2274    5.2917 C.3     1  UNL1        0.0721
     15 C          58.1225   91.9237    4.5716 C.3     1  UNL1        0.0188
     16 C          56.8327   91.2749    4.9784 C.3     1  UNL1        0.0188
     17 C          57.1521   90.1776    5.9500 C.3     1  UNL1        0.0721
     18 O          63.9237   83.5477   12.3692 O.3     1  UNL1       -0.4754
     19 C          64.9070   84.0834   13.3674 C.3     1  UNL1        0.2068
     20 C          64.4536   84.4314   14.7542 C.3     1  UNL1        0.0646
     21 C          63.3949   83.6082   15.4260 C.3     1  UNL1        0.0759
     22 N          62.9043   82.3460   14.7806 N.3     1  UNL1       -0.2726
     23 C          61.4348   82.1365   14.5643 C.3     1  UNL1        0.0721
     24 C          60.9442   80.8744   13.9190 C.3     1  UNL1        0.0174
     25 C          61.9231   79.8219   13.4900 C.3     1  UNL1        0.0029
     26 C          63.3925   80.0314   13.7064 C.3     1  UNL1        0.0174
     27 C          63.8831   81.2935   14.3517 C.3     1  UNL1        0.0721
@<TRIPOS>BOND
     1     1     2   ar
     2     2     3   ar
     3     7     3    1
     4     7     8    1
     5     8     9    1
     6     9    10    1
     7    10    13    1
     8    13    14    1
     9    14    15    1
    10    15    16    1
    11    16    17    1
    12    10    11    1
    13    11    12    1
    14     3     4   ar
    15     4     5   ar
    16     5     6   ar
    17     6    18    1
    18    18    19    1
    19    19    20    1
    20    20    21    1
    21    21    22    1
    22    22    23    1
    23    23    24    1
    24    24    25    1
    25    25    26    1
    26    26    27    1
    27     6     1   ar
    28    27    22    1
    29    12     7    1
    30    17    13    1
