@<TRIPOS>MOLECULE
*****
 38 42 0 0 0
SMALL
GASTEIGER

@<TRIPOS>ATOM
      1 C          62.3504   87.0273   11.9404 C.ar    1  UNL1        0.2040
      2 C          61.9213   87.3814   10.5474 C.ar    1  UNL1        0.1628
      3 N          61.1030   86.4130    9.7457 N.pl3   1  UNL1       -0.3401
      4 N          62.3104   88.7038    9.9561 N.ar    1  UNL1       -0.2263
      5 C          63.1288   89.6722   10.7578 C.ar    1  UNL1        0.1036
      6 C          63.5579   89.3181   12.1508 C.ar    1  UNL1        0.0600
      7 C          64.3631   90.0640   13.1732 C.ar    1  UNL1        0.0452
      8 C          64.4716   89.2026   14.3963 C.ar    1  UNL1        0.1798
      9 O          63.7334   87.9242   14.1299 O.2     1  UNL1       -0.4472
     10 C          63.1687   87.9956   12.7421 C.ar    1  UNL1        0.1834
     11 H          60.8476   85.5451   10.1339 H       1  UNL1        0.1438
     12 H          60.8213   86.6454    8.8315 H       1  UNL1        0.1438
     13 C          64.9558   91.4313   13.0023 C.ar    1  UNL1        0.0428
     14 C          65.2456   92.4102   14.1013 C.ar    1  UNL1        0.1217
     15 N          65.8317   93.6437   13.4806 N.ar    1  UNL1       -0.1677
     16 N          65.9039   93.4271   11.9981 N.ar    1  UNL1       -0.2512
     17 C          65.3626   92.0597   11.7025 C.ar    1  UNL1        0.0966
     18 C          66.4258   94.4060   10.9885 C.3     1  UNL1        0.1080
     19 C          66.2138   95.8771   11.1909 C.3     1  UNL1        0.0415
     20 C          66.7357   96.8560   10.1813 C.3     1  UNL1        0.0706
     21 N          67.4698   96.3638    8.9692 N.3     1  UNL1       -0.2974
     22 C          67.6818   94.8928    8.7668 C.3     1  UNL1        0.0706
     23 C          67.1599   93.9138    9.7764 C.3     1  UNL1        0.0415
     24 H          68.3941   96.7945    8.9897 H       1  UNL1        0.1232
     25 O          61.9613   85.7048   12.5318 O.3     1  UNL1       -0.4678
     26 C          63.0205   84.7167   12.9215 C.3     1  UNL1        0.2030
     27 C          62.9882   83.3241   12.3651 C.ar    1  UNL1        0.0415
     28 C          63.4363   83.0687   10.9565 C.ar    1  UNL1        0.0580
     29 CL         63.9167   84.2058   10.1045 Cl      1  UNL1       -0.0824
     30 C          63.4041   81.6760   10.4001 C.ar    1  UNL1        0.0135
     31 C          62.9236   80.5389   11.2523 C.ar    1  UNL1        0.0314
     32 C          62.4755   80.7943   12.6608 C.ar    1  UNL1        0.1505
     33 F          61.9951   79.6572   13.5129 F       1  UNL1       -0.2033
     34 C          62.5078   82.1870   13.2172 C.ar    1  UNL1        0.0852
     35 CL         62.0597   82.4424   14.6257 Cl      1  UNL1       -0.0801
     36 C          64.1119   85.1212   13.8676 C.3     1  UNL1        0.1251
     37 C          63.4796   85.6361   16.7547 C.1     1  UNL1       -0.0140
     38 C          63.7958   85.3787   15.3111 C.1     1  UNL1       -0.0737
@<TRIPOS>BOND
     1    37    38    3
     2    38    36    1
     3    36    26    1
     4    26    25    1
     5    25     1    1
     6     1     2   ar
     7     2     3    1
     8     2     4   ar
     9     4     5   ar
    10     5     6   ar
    11     6     7   ar
    12     7    13    1
    13    13    14   ar
    14    14    15   ar
    15    15    16   ar
    16    16    18    1
    17    18    19    1
    18    19    20    1
    19    20    21    1
    20    21    22    1
    21    22    23    1
    22    16    17   ar
    23     7     8   ar
    24     8     9   ar
    25     9    10   ar
    26    26    27    1
    27    27    28   ar
    28    28    29    1
    29    28    30   ar
    30    30    31   ar
    31    31    32   ar
    32    32    33    1
    33    32    34   ar
    34    34    35    1
    35    10     1   ar
    36    34    27   ar
    37    10     6   ar
    38    17    13   ar
    39    23    18    1
    40     3    11    1
    41     3    12    1
    42    21    24    1
@<TRIPOS>MOLECULE
*****
 38 42 0 0 0
SMALL
GASTEIGER

@<TRIPOS>ATOM
      1 C          64.2210   91.3932   12.1611 C.ar    1  UNL1        0.2040
      2 C          63.4586   91.0150   10.9259 C.ar    1  UNL1        0.1628
      3 N          63.2716   92.0157    9.8242 N.pl3   1  UNL1       -0.3401
      4 N          62.8833   89.6362   10.7923 N.ar    1  UNL1       -0.2263
      5 C          63.0703   88.6355   11.8940 C.ar    1  UNL1        0.1036
      6 C          63.8327   89.0136   13.1292 C.ar    1  UNL1        0.0600
      7 C          64.1762   88.2457   14.3711 C.ar    1  UNL1        0.0452
      8 C          64.9639   89.1499   15.2722 C.ar    1  UNL1        0.1798
      9 O          65.1071   90.4767   14.5872 O.2     1  UNL1       -0.4472
     10 C          64.4080   90.3925   13.2628 C.ar    1  UNL1        0.1834
     11 H          63.6492   92.9207    9.9119 H       1  UNL1        0.1438
     12 H          62.7712   91.7676    9.0135 H       1  UNL1        0.1438
     13 C          63.7984   86.8233   14.6609 C.ar    1  UNL1        0.0428
     14 C          63.5161   86.2446   16.0157 C.ar    1  UNL1        0.1217
     15 N          63.1798   84.7934   15.8389 N.ar    1  UNL1       -0.1677
     16 N          63.2543   84.4754   14.3749 N.ar    1  UNL1       -0.2512
     17 C          63.6366   85.7299   13.6468 C.ar    1  UNL1        0.0966
     18 C          62.9924   83.1377   13.7489 C.3     1  UNL1        0.1080
     19 C          63.6037   82.7980   12.4218 C.3     1  UNL1        0.0415
     20 C          63.3419   81.4603   11.7958 C.3     1  UNL1        0.0706
     21 N          62.4686   80.4622   12.4967 N.3     1  UNL1       -0.2974
     22 C          61.8573   80.8018   13.8237 C.3     1  UNL1        0.0706
     23 C          62.1191   82.1396   14.4498 C.3     1  UNL1        0.0415
     24 H          63.0336   79.6249   12.6385 H       1  UNL1        0.1232
     25 O          64.7963   92.7720   12.2947 O.3     1  UNL1       -0.4678
     26 C          66.2614   92.9987   12.0661 C.3     1  UNL1        0.2030
     27 C          66.7183   93.8539   10.9215 C.ar    1  UNL1        0.0415
     28 C          66.5247   95.3405   10.9721 C.ar    1  UNL1        0.0580
     29 CL         65.8743   95.9719   12.1671 Cl      1  UNL1       -0.0824
     30 C          66.9816   96.1956    9.8275 C.ar    1  UNL1        0.0135
     31 C          67.6321   95.5641    8.6324 C.ar    1  UNL1        0.0314
     32 C          67.8256   94.0775    8.5819 C.ar    1  UNL1        0.1505
     33 F          68.4760   93.4461    7.3869 F       1  UNL1       -0.2033
     34 C          67.3687   93.2224    9.7265 C.ar    1  UNL1        0.0852
     35 CL         67.5623   91.7358    9.6760 Cl      1  UNL1       -0.0801
     36 C          67.2695   92.3703   12.9819 C.3     1  UNL1        0.1251
     37 C          67.5990   93.3982   15.7810 C.1     1  UNL1       -0.0140
     38 C          67.4342   92.8843   14.3814 C.1     1  UNL1       -0.0737
@<TRIPOS>BOND
     1    37    38    3
     2    38    36    1
     3    36    26    1
     4    26    25    1
     5    25     1    1
     6     1     2   ar
     7     2     3    1
     8     2     4   ar
     9     4     5   ar
    10     5     6   ar
    11     6     7   ar
    12     7    13    1
    13    13    14   ar
    14    14    15   ar
    15    15    16   ar
    16    16    18    1
    17    18    19    1
    18    19    20    1
    19    20    21    1
    20    21    22    1
    21    22    23    1
    22    16    17   ar
    23     7     8   ar
    24     8     9   ar
    25     9    10   ar
    26    26    27    1
    27    27    28   ar
    28    28    29    1
    29    28    30   ar
    30    30    31   ar
    31    31    32   ar
    32    32    33    1
    33    32    34   ar
    34    34    35    1
    35    10     1   ar
    36    34    27   ar
    37    10     6   ar
    38    17    13   ar
    39    23    18    1
    40     3    11    1
    41     3    12    1
    42    21    24    1
@<TRIPOS>MOLECULE
*****
 38 42 0 0 0
SMALL
GASTEIGER

@<TRIPOS>ATOM
      1 C          61.8488   86.9866   11.1885 C.ar    1  UNL1        0.2040
      2 C          61.2426   87.6007    9.9615 C.ar    1  UNL1        0.1628
      3 N          60.3112   86.7976    9.1028 N.pl3   1  UNL1       -0.3401
      4 N          61.5679   89.0180    9.5932 N.ar    1  UNL1       -0.2263
      5 C          62.4994   89.8211   10.4520 C.ar    1  UNL1        0.1036
      6 C          63.1055   89.2070   11.6789 C.ar    1  UNL1        0.0600
      7 C          64.0503   89.7487   12.7104 C.ar    1  UNL1        0.0452
      8 C          64.3089   88.6663   13.7161 C.ar    1  UNL1        0.1798
      9 O          63.5240   87.4556   13.3062 O.2     1  UNL1       -0.4472
     10 C          62.7802   87.7897   12.0472 C.ar    1  UNL1        0.1834
     11 H          60.0977   85.8674    9.3445 H       1  UNL1        0.1438
     12 H          59.9134   87.2006    8.2975 H       1  UNL1        0.1438
     13 C          64.6340   91.1303   12.7323 C.ar    1  UNL1        0.0428
     14 C          64.8580   91.9736   13.9524 C.ar    1  UNL1        0.1217
     15 N          65.4586   93.2757   13.5120 N.ar    1  UNL1       -0.1677
     16 N          65.6057   93.2371   12.0197 N.ar    1  UNL1       -0.2512
     17 C          65.0961   91.9112   11.5378 C.ar    1  UNL1        0.0966
     18 C          66.1644   94.3322   11.1603 C.3     1  UNL1        0.1080
     19 C          66.8227   93.9987    9.8542 C.3     1  UNL1        0.0415
     20 C          67.3814   95.0938    8.9948 C.3     1  UNL1        0.0706
     21 N          67.2819   96.5224    9.4413 N.3     1  UNL1       -0.2974
     22 C          66.6237   96.8558   10.7473 C.3     1  UNL1        0.0706
     23 C          66.0649   95.7607   11.6068 C.3     1  UNL1        0.0415
     24 H          66.7675   97.0223    8.7162 H       1  UNL1        0.1232
     25 O          61.5235   85.5694   11.5567 O.3     1  UNL1       -0.4678
     26 C          62.5550   84.4940   11.3841 C.3     1  UNL1        0.2030
     27 C          62.5396   83.2896   12.2782 C.ar    1  UNL1        0.0415
     28 C          62.3988   83.4588   13.7620 C.ar    1  UNL1        0.0580
     29 CL         62.2734   84.8323   14.3517 Cl      1  UNL1       -0.0824
     30 C          62.3835   82.2544   14.6560 C.ar    1  UNL1        0.0135
     31 C          62.5089   80.8809   14.0662 C.ar    1  UNL1        0.0314
     32 C          62.6496   80.7118   12.5825 C.ar    1  UNL1        0.1505
     33 F          62.7751   79.3383   11.9928 F       1  UNL1       -0.2033
     34 C          62.6650   81.9162   11.6885 C.ar    1  UNL1        0.0852
     35 CL         62.8058   81.7470   10.2047 Cl      1  UNL1       -0.0801
     36 C          63.6017   84.6230   10.3176 C.3     1  UNL1        0.1251
     37 C          62.7879   84.9140    7.4447 C.1     1  UNL1       -0.0140
     38 C          63.1948   84.7685    8.8812 C.1     1  UNL1       -0.0737
@<TRIPOS>BOND
     1    37    38    3
     2    38    36    1
     3    36    26    1
     4    26    25    1
     5    25     1    1
     6     1     2   ar
     7     2     3    1
     8     2     4   ar
     9     4     5   ar
    10     5     6   ar
    11     6     7   ar
    12     7    13    1
    13    13    14   ar
    14    14    15   ar
    15    15    16   ar
    16    16    18    1
    17    18    19    1
    18    19    20    1
    19    20    21    1
    20    21    22    1
    21    22    23    1
    22    16    17   ar
    23     7     8   ar
    24     8     9   ar
    25     9    10   ar
    26    26    27    1
    27    27    28   ar
    28    28    29    1
    29    28    30   ar
    30    30    31   ar
    31    31    32   ar
    32    32    33    1
    33    32    34   ar
    34    34    35    1
    35    10     1   ar
    36    34    27   ar
    37    10     6   ar
    38    17    13   ar
    39    23    18    1
    40     3    11    1
    41     3    12    1
    42    21    24    1
@<TRIPOS>MOLECULE
*****
 38 42 0 0 0
SMALL
GASTEIGER

@<TRIPOS>ATOM
      1 C          64.4847   91.6197   13.4477 C.ar    1  UNL1        0.2040
      2 C          64.8250   91.0692   14.8010 C.ar    1  UNL1        0.1628
      3 N          65.4374   91.9601   15.8408 N.pl3   1  UNL1       -0.3401
      4 N          64.5529   89.6277   15.1143 N.ar    1  UNL1       -0.2263
      5 C          63.9405   88.7368   14.0744 C.ar    1  UNL1        0.1036
      6 C          63.6002   89.2874   12.7212 C.ar    1  UNL1        0.0600
      7 C          62.9930   88.6551   11.5041 C.ar    1  UNL1        0.0452
      8 C          62.8899   89.7057   10.4384 C.ar    1  UNL1        0.1798
      9 O          63.4333   90.9874   10.9971 O.2     1  UNL1       -0.4472
     10 C          63.8723   90.7288   12.4079 C.ar    1  UNL1        0.1834
     11 H          65.6160   92.9061   15.6351 H       1  UNL1        0.1438
     12 H          65.6607   91.5987   16.7289 H       1  UNL1        0.1438
     13 C          62.5643   87.2235   11.3751 C.ar    1  UNL1        0.0428
     14 C          61.5900   86.6818   10.3714 C.ar    1  UNL1        0.1217
     15 N          61.4581   85.2057   10.6033 N.ar    1  UNL1       -0.1677
     16 N          62.3509   84.8351   11.7503 N.ar    1  UNL1       -0.2512
     17 C          63.0346   86.0821   12.2273 C.ar    1  UNL1        0.0966
     18 C          62.5288   83.4590   12.3202 C.3     1  UNL1        0.1080
     19 C          62.4404   83.2437   13.8021 C.3     1  UNL1        0.0415
     20 C          62.6182   81.8677   14.3720 C.3     1  UNL1        0.0706
     21 N          62.8846   80.7068   13.4600 N.3     1  UNL1       -0.2974
     22 C          62.9730   80.9221   11.9782 C.3     1  UNL1        0.0706
     23 C          62.7951   82.2982   11.4083 C.3     1  UNL1        0.0415
     24 H          62.1353   80.0324   13.6154 H       1  UNL1        0.1232
     25 O          64.7568   93.0612   13.1344 O.3     1  UNL1       -0.4678
     26 C          66.1667   93.5313   12.9312 C.3     1  UNL1        0.2030
     27 C          66.8390   93.3349   11.6048 C.ar    1  UNL1        0.0415
     28 C          67.8375   92.2298   11.4263 C.ar    1  UNL1        0.0580
     29 CL         68.1637   91.3211   12.5743 Cl      1  UNL1       -0.0824
     30 C          68.5098   92.0334   10.0999 C.ar    1  UNL1        0.0135
     31 C          68.1836   92.9421    8.9519 C.ar    1  UNL1        0.0314
     32 C          67.1851   94.0471    9.1303 C.ar    1  UNL1        0.1505
     33 F          66.8589   94.9558    7.9823 F       1  UNL1       -0.2033
     34 C          66.5128   94.2435   10.4568 C.ar    1  UNL1        0.0852
     35 CL         65.5144   95.3486   10.6352 Cl      1  UNL1       -0.0801
     36 C          66.9043   94.1978   14.0545 C.3     1  UNL1        0.1251
     37 C          68.7518   92.5974   15.7939 C.1     1  UNL1       -0.0140
     38 C          67.8280   93.3977   14.9242 C.1     1  UNL1       -0.0737
@<TRIPOS>BOND
     1    37    38    3
     2    38    36    1
     3    36    26    1
     4    26    25    1
     5    25     1    1
     6     1     2   ar
     7     2     3    1
     8     2     4   ar
     9     4     5   ar
    10     5     6   ar
    11     6     7   ar
    12     7    13    1
    13    13    14   ar
    14    14    15   ar
    15    15    16   ar
    16    16    18    1
    17    18    19    1
    18    19    20    1
    19    20    21    1
    20    21    22    1
    21    22    23    1
    22    16    17   ar
    23     7     8   ar
    24     8     9   ar
    25     9    10   ar
    26    26    27    1
    27    27    28   ar
    28    28    29    1
    29    28    30   ar
    30    30    31   ar
    31    31    32   ar
    32    32    33    1
    33    32    34   ar
    34    34    35    1
    35    10     1   ar
    36    34    27   ar
    37    10     6   ar
    38    17    13   ar
    39    23    18    1
    40     3    11    1
    41     3    12    1
    42    21    24    1
@<TRIPOS>MOLECULE
*****
 38 42 0 0 0
SMALL
GASTEIGER

@<TRIPOS>ATOM
      1 C          61.4220   87.0187   10.7103 C.ar    1  UNL1        0.2040
      2 C          62.2724   88.1341   11.2420 C.ar    1  UNL1        0.1628
      3 N          63.0889   87.9284   12.4834 N.pl3   1  UNL1       -0.3401
      4 N          62.3063   89.4551   10.5324 N.ar    1  UNL1       -0.2263
      5 C          61.4897   89.6608    9.2910 C.ar    1  UNL1        0.1036
      6 C          60.6393   88.5454    8.7593 C.ar    1  UNL1        0.0600
      7 C          59.7345   88.4541    7.5664 C.ar    1  UNL1        0.0452
      8 C          59.1414   87.0766    7.5388 C.ar    1  UNL1        0.1798
      9 O          59.6797   86.3166    8.7147 O.2     1  UNL1       -0.4472
     10 C          60.6055   87.2243    9.4690 C.ar    1  UNL1        0.1834
     11 H          63.0667   87.0613   12.9491 H       1  UNL1        0.1438
     12 H          63.6471   88.6604   12.8324 H       1  UNL1        0.1438
     13 C          59.4693   89.5482    6.5752 C.ar    1  UNL1        0.0428
     14 C          58.1551   90.2357    6.3513 C.ar    1  UNL1        0.1217
     15 N          58.3454   91.2594    5.2715 N.ar    1  UNL1       -0.1677
     16 N          59.7773   91.2045    4.8280 N.ar    1  UNL1       -0.2512
     17 C          60.4719   90.1470    5.6337 C.ar    1  UNL1        0.0966
     18 C          60.4044   92.0574    3.7654 C.3     1  UNL1        0.1080
     19 C          59.5802   93.0804    3.0413 C.3     1  UNL1        0.0415
     20 C          60.2073   93.9334    1.9787 C.3     1  UNL1        0.0706
     21 N          61.6587   93.7634    1.6401 N.3     1  UNL1       -0.2974
     22 C          62.4829   92.7405    2.3641 C.3     1  UNL1        0.0706
     23 C          61.8558   91.8875    3.4268 C.3     1  UNL1        0.0415
     24 H          62.1055   94.6667    1.7976 H       1  UNL1        0.1232
     25 O          61.3881   85.6976   11.4200 O.3     1  UNL1       -0.4678
     26 C          62.5200   84.7274   11.2533 C.3     1  UNL1        0.2030
     27 C          62.6556   83.5648   12.1914 C.ar    1  UNL1        0.0415
     28 C          62.7545   83.8013   13.6694 C.ar    1  UNL1        0.0580
     29 CL         62.7178   85.2003   14.2092 Cl      1  UNL1       -0.0824
     30 C          62.8900   82.6387   14.6074 C.ar    1  UNL1        0.0135
     31 C          62.9267   81.2397   14.0675 C.ar    1  UNL1        0.0314
     32 C          62.8278   81.0033   12.5896 C.ar    1  UNL1        0.1505
     33 F          62.8645   79.6043   12.0498 F       1  UNL1       -0.2033
     34 C          62.6922   82.1659   11.6515 C.ar    1  UNL1        0.0852
     35 CL         62.5933   81.9295   10.1736 Cl      1  UNL1       -0.0801
     36 C          63.5162   84.9199   10.1486 C.3     1  UNL1        0.1251
     37 C          62.6035   84.9309    7.2908 C.1     1  UNL1       -0.0140
     38 C          63.0598   84.9254    8.7197 C.1     1  UNL1       -0.0737
@<TRIPOS>BOND
     1    37    38    3
     2    38    36    1
     3    36    26    1
     4    26    25    1
     5    25     1    1
     6     1     2   ar
     7     2     3    1
     8     2     4   ar
     9     4     5   ar
    10     5     6   ar
    11     6     7   ar
    12     7    13    1
    13    13    14   ar
    14    14    15   ar
    15    15    16   ar
    16    16    18    1
    17    18    19    1
    18    19    20    1
    19    20    21    1
    20    21    22    1
    21    22    23    1
    22    16    17   ar
    23     7     8   ar
    24     8     9   ar
    25     9    10   ar
    26    26    27    1
    27    27    28   ar
    28    28    29    1
    29    28    30   ar
    30    30    31   ar
    31    31    32   ar
    32    32    33    1
    33    32    34   ar
    34    34    35    1
    35    10     1   ar
    36    34    27   ar
    37    10     6   ar
    38    17    13   ar
    39    23    18    1
    40     3    11    1
    41     3    12    1
    42    21    24    1
@<TRIPOS>MOLECULE
*****
 38 42 0 0 0
SMALL
GASTEIGER

@<TRIPOS>ATOM
      1 C          60.4511   87.8977   10.9140 C.ar    1  UNL1        0.2040
      2 C          60.4425   89.1789   11.6941 C.ar    1  UNL1        0.1628
      3 N          60.6999   89.1591   13.1717 N.pl3   1  UNL1       -0.3401
      4 N          60.1763   90.4799   10.9965 N.ar    1  UNL1       -0.2263
      5 C          59.9189   90.4997    9.5188 C.ar    1  UNL1        0.1036
      6 C          59.9276   89.2185    8.7388 C.ar    1  UNL1        0.0600
      7 C          59.7088   88.9279    7.2836 C.ar    1  UNL1        0.0452
      8 C          59.8397   87.4473    7.0818 C.ar    1  UNL1        0.1798
      9 O          60.1394   86.8229    8.4123 O.2     1  UNL1       -0.4472
     10 C          60.1937   87.9175    9.4364 C.ar    1  UNL1        0.1834
     11 H          60.8745   88.3052   13.6295 H       1  UNL1        0.1438
     12 H          60.6942   90.0000   13.6836 H       1  UNL1        0.1438
     13 C          59.4113   89.9402    6.2174 C.ar    1  UNL1        0.0428
     14 C          58.0726   90.5544    5.9336 C.ar    1  UNL1        0.1217
     15 N          58.2343   91.5098    4.7886 N.ar    1  UNL1       -0.1677
     16 N          59.6730   91.4860    4.3647 N.ar    1  UNL1       -0.2512
     17 C          60.4004   90.5159    5.2478 C.ar    1  UNL1        0.0966
     18 C          60.2779   92.2910    3.2530 C.3     1  UNL1        0.1080
     19 C          61.7685   92.3507    3.0953 C.3     1  UNL1        0.0415
     20 C          62.3735   93.1557    1.9836 C.3     1  UNL1        0.0706
     21 N          61.4880   93.9011    1.0295 N.3     1  UNL1       -0.2974
     22 C          59.9975   93.8415    1.1871 C.3     1  UNL1        0.0706
     23 C          59.3924   93.0364    2.2989 C.3     1  UNL1        0.0415
     24 H          61.6996   93.5496    0.0956 H       1  UNL1        0.1232
     25 O          60.7173   86.5967   11.6116 O.3     1  UNL1       -0.4678
     26 C          62.0825   85.9782   11.5500 C.3     1  UNL1        0.2030
     27 C          62.9068   85.8547   12.7970 C.ar    1  UNL1        0.0415
     28 C          63.6576   87.0432   13.3205 C.ar    1  UNL1        0.0580
     29 CL         63.5840   88.3551   12.5969 Cl      1  UNL1       -0.0824
     30 C          64.4820   86.9198   14.5676 C.ar    1  UNL1        0.0135
     31 C          64.5556   85.6078   15.2911 C.ar    1  UNL1        0.0314
     32 C          63.8049   84.4194   14.7676 C.ar    1  UNL1        0.1505
     33 F          63.8785   83.1076   15.4912 F       1  UNL1       -0.2033
     34 C          62.9805   84.5429   13.5206 C.ar    1  UNL1        0.0852
     35 CL         62.2298   83.3545   12.9971 Cl      1  UNL1       -0.0801
     36 C          62.6232   85.4832   10.2414 C.3     1  UNL1        0.1251
     37 C          64.2568   82.9687   10.1483 C.1     1  UNL1       -0.0140
     38 C          63.4400   84.2260   10.1948 C.1     1  UNL1       -0.0737
@<TRIPOS>BOND
     1    37    38    3
     2    38    36    1
     3    36    26    1
     4    26    25    1
     5    25     1    1
     6     1     2   ar
     7     2     3    1
     8     2     4   ar
     9     4     5   ar
    10     5     6   ar
    11     6     7   ar
    12     7    13    1
    13    13    14   ar
    14    14    15   ar
    15    15    16   ar
    16    16    18    1
    17    18    19    1
    18    19    20    1
    19    20    21    1
    20    21    22    1
    21    22    23    1
    22    16    17   ar
    23     7     8   ar
    24     8     9   ar
    25     9    10   ar
    26    26    27    1
    27    27    28   ar
    28    28    29    1
    29    28    30   ar
    30    30    31   ar
    31    31    32   ar
    32    32    33    1
    33    32    34   ar
    34    34    35    1
    35    10     1   ar
    36    34    27   ar
    37    10     6   ar
    38    17    13   ar
    39    23    18    1
    40     3    11    1
    41     3    12    1
    42    21    24    1
@<TRIPOS>MOLECULE
*****
 38 42 0 0 0
SMALL
GASTEIGER

@<TRIPOS>ATOM
      1 C          63.1774   86.2377   13.6311 C.ar    1  UNL1        0.2040
      2 C          64.1236   86.0528   14.7803 C.ar    1  UNL1        0.1628
      3 N          64.1653   84.7455   15.5146 N.pl3   1  UNL1       -0.3401
      4 N          65.0281   87.1753   15.1952 N.ar    1  UNL1       -0.2263
      5 C          64.9863   88.4826   14.4609 C.ar    1  UNL1        0.1036
      6 C          64.0401   88.6675   13.3117 C.ar    1  UNL1        0.0600
      7 C          63.7771   89.8337   12.4057 C.ar    1  UNL1        0.0452
      8 C          62.7102   89.4320   11.4309 C.ar    1  UNL1        0.1798
      9 O          62.3138   88.0176   11.7345 O.2     1  UNL1       -0.4472
     10 C          63.1357   87.5450   12.8969 C.ar    1  UNL1        0.1834
     11 H          63.5717   84.0089   15.2423 H       1  UNL1        0.1438
     12 H          64.7864   84.6242   16.2688 H       1  UNL1        0.1438
     13 C          64.4611   91.1674   12.4643 C.ar    1  UNL1        0.0428
     14 C          64.8085   91.9261   13.7107 C.ar    1  UNL1        0.1217
     15 N          65.4799   93.2042   13.3034 N.ar    1  UNL1       -0.1677
     16 N          65.5473   93.2353   11.8052 N.ar    1  UNL1       -0.2512
     17 C          64.9177   91.9765   11.2866 C.ar    1  UNL1        0.0966
     18 C          66.1402   94.3327   10.9720 C.3     1  UNL1        0.1080
     19 C          66.0479   95.7574   11.4323 C.3     1  UNL1        0.0415
     20 C          66.6409   96.8547   10.5991 C.3     1  UNL1        0.0706
     21 N          67.3262   96.5274    9.3056 N.3     1  UNL1       -0.2974
     22 C          67.4186   95.1028    8.8452 C.3     1  UNL1        0.0706
     23 C          66.8256   94.0054    9.6785 C.3     1  UNL1        0.0415
     24 H          68.2822   96.8744    9.3828 H       1  UNL1        0.1232
     25 O          62.2730   85.1153   13.2163 O.3     1  UNL1       -0.4678
     26 C          62.7673   84.0664   12.2646 C.3     1  UNL1        0.2030
     27 C          62.5746   82.6135   12.5838 C.ar    1  UNL1        0.0415
     28 C          62.0341   82.2048   13.9221 C.ar    1  UNL1        0.0580
     29 CL         61.6864   83.2491   14.9411 Cl      1  UNL1       -0.0824
     30 C          61.8414   80.7519   14.2412 C.ar    1  UNL1        0.0135
     31 C          62.1891   79.7076   13.2220 C.ar    1  UNL1        0.0314
     32 C          62.7295   80.1163   11.8838 C.ar    1  UNL1        0.1505
     33 F          63.0772   79.0721   10.8647 F       1  UNL1       -0.2033
     34 C          62.9223   81.5692   11.5647 C.ar    1  UNL1        0.0852
     35 CL         63.4627   81.9779   10.2265 Cl      1  UNL1       -0.0801
     36 C          63.4544   84.4705   10.9940 C.3     1  UNL1        0.1251
     37 C          61.9372   85.9579    8.8760 C.1     1  UNL1       -0.0140
     38 C          62.6958   85.2141    9.9350 C.1     1  UNL1       -0.0737
@<TRIPOS>BOND
     1    37    38    3
     2    38    36    1
     3    36    26    1
     4    26    25    1
     5    25     1    1
     6     1     2   ar
     7     2     3    1
     8     2     4   ar
     9     4     5   ar
    10     5     6   ar
    11     6     7   ar
    12     7    13    1
    13    13    14   ar
    14    14    15   ar
    15    15    16   ar
    16    16    18    1
    17    18    19    1
    18    19    20    1
    19    20    21    1
    20    21    22    1
    21    22    23    1
    22    16    17   ar
    23     7     8   ar
    24     8     9   ar
    25     9    10   ar
    26    26    27    1
    27    27    28   ar
    28    28    29    1
    29    28    30   ar
    30    30    31   ar
    31    31    32   ar
    32    32    33    1
    33    32    34   ar
    34    34    35    1
    35    10     1   ar
    36    34    27   ar
    37    10     6   ar
    38    17    13   ar
    39    23    18    1
    40     3    11    1
    41     3    12    1
    42    21    24    1
@<TRIPOS>MOLECULE
*****
 38 42 0 0 0
SMALL
GASTEIGER

@<TRIPOS>ATOM
      1 C          60.6304   87.9830   10.9394 C.ar    1  UNL1        0.2040
      2 C          60.7109   89.2853   11.6796 C.ar    1  UNL1        0.1628
      3 N          61.0392   89.2970   13.1432 N.pl3   1  UNL1       -0.3401
      4 N          60.4633   90.5757   10.9562 N.ar    1  UNL1       -0.2263
      5 C          60.1350   90.5640    9.4926 C.ar    1  UNL1        0.1036
      6 C          60.0544   89.2618    8.7524 C.ar    1  UNL1        0.0600
      7 C          59.7534   88.9391    7.3188 C.ar    1  UNL1        0.0452
      8 C          59.8150   87.4492    7.1562 C.ar    1  UNL1        0.1798
      9 O          60.1541   86.8511    8.4893 O.2     1  UNL1       -0.4472
     10 C          60.3021   87.9714    9.4759 C.ar    1  UNL1        0.1834
     11 H          61.2018   88.4500   13.6180 H       1  UNL1        0.1438
     12 H          61.0921   90.1516   13.6290 H       1  UNL1        0.1438
     13 C          59.4449   89.9320    6.2376 C.ar    1  UNL1        0.0428
     14 C          58.0930   90.5004    5.9221 C.ar    1  UNL1        0.1217
     15 N          58.2467   91.4506    4.7716 N.ar    1  UNL1       -0.1677
     16 N          59.6936   91.4694    4.3761 N.ar    1  UNL1       -0.2512
     17 C          60.4340   90.5309    5.2822 C.ar    1  UNL1        0.0966
     18 C          60.2944   92.2837    3.2690 C.3     1  UNL1        0.1080
     19 C          59.4079   93.0777    2.3557 C.3     1  UNL1        0.0415
     20 C          60.0087   93.8920    1.2486 C.3     1  UNL1        0.0706
     21 N          61.4960   93.9125    1.0545 N.3     1  UNL1       -0.2974
     22 C          62.3824   93.1186    1.9677 C.3     1  UNL1        0.0706
     23 C          61.7817   92.3042    3.0749 C.3     1  UNL1        0.0415
     24 H          61.7897   94.8862    1.1323 H       1  UNL1        0.1232
     25 O          60.8780   86.6926   11.6629 O.3     1  UNL1       -0.4678
     26 C          62.2831   86.2288   11.9095 C.3     1  UNL1        0.2030
     27 C          62.6469   84.7898   11.6924 C.ar    1  UNL1        0.0415
     28 C          63.0723   84.3207   10.3326 C.ar    1  UNL1        0.0580
     29 CL         63.1339   85.2906    9.1899 Cl      1  UNL1       -0.0824
     30 C          63.4361   82.8818   10.1154 C.ar    1  UNL1        0.0135
     31 C          63.3745   81.9120   11.2581 C.ar    1  UNL1        0.0314
     32 C          62.9491   82.3811   12.6179 C.ar    1  UNL1        0.1505
     33 F          62.8875   81.4113   13.7605 F       1  UNL1       -0.2033
     34 C          62.5853   83.8200   12.8350 C.ar    1  UNL1        0.0852
     35 CL         62.1599   84.2891   14.1947 Cl      1  UNL1       -0.0801
     36 C          63.3243   87.2038   12.3733 C.3     1  UNL1        0.1251
     37 C          64.5272   86.9263   15.1075 C.1     1  UNL1       -0.0140
     38 C          63.9258   87.0651   13.7403 C.1     1  UNL1       -0.0737
@<TRIPOS>BOND
     1    37    38    3
     2    38    36    1
     3    36    26    1
     4    26    25    1
     5    25     1    1
     6     1     2   ar
     7     2     3    1
     8     2     4   ar
     9     4     5   ar
    10     5     6   ar
    11     6     7   ar
    12     7    13    1
    13    13    14   ar
    14    14    15   ar
    15    15    16   ar
    16    16    18    1
    17    18    19    1
    18    19    20    1
    19    20    21    1
    20    21    22    1
    21    22    23    1
    22    16    17   ar
    23     7     8   ar
    24     8     9   ar
    25     9    10   ar
    26    26    27    1
    27    27    28   ar
    28    28    29    1
    29    28    30   ar
    30    30    31   ar
    31    31    32   ar
    32    32    33    1
    33    32    34   ar
    34    34    35    1
    35    10     1   ar
    36    34    27   ar
    37    10     6   ar
    38    17    13   ar
    39    23    18    1
    40     3    11    1
    41     3    12    1
    42    21    24    1
@<TRIPOS>MOLECULE
*****
 38 42 0 0 0
SMALL
GASTEIGER

@<TRIPOS>ATOM
      1 C          61.3256   87.4909   10.7284 C.ar    1  UNL1        0.2040
      2 C          62.0730   88.6781   11.2595 C.ar    1  UNL1        0.1628
      3 N          62.8415   88.5678   12.5429 N.pl3   1  UNL1       -0.3401
      4 N          62.0518   89.9757   10.5073 N.ar    1  UNL1       -0.2263
      5 C          61.2832   90.0860    9.2238 C.ar    1  UNL1        0.1036
      6 C          60.5359   88.8989    8.6927 C.ar    1  UNL1        0.0600
      7 C          59.6970   88.7085    7.4639 C.ar    1  UNL1        0.0452
      8 C          59.1997   87.2934    7.4567 C.ar    1  UNL1        0.1798
      9 O          59.7313   86.6091    8.6811 O.2     1  UNL1       -0.4472
     10 C          60.5571   87.6013    9.4450 C.ar    1  UNL1        0.1834
     11 H          62.8554   87.7161   13.0367 H       1  UNL1        0.1438
     12 H          63.3320   89.3469   12.8915 H       1  UNL1        0.1438
     13 C          59.4064   89.7505    6.4247 C.ar    1  UNL1        0.0428
     14 C          58.0711   90.3783    6.1549 C.ar    1  UNL1        0.1217
     15 N          58.2395   91.3634    5.0363 N.ar    1  UNL1       -0.1677
     16 N          59.6790   91.3443    4.6147 N.ar    1  UNL1       -0.2512
     17 C          60.4001   90.3475    5.4728 C.ar    1  UNL1        0.0966
     18 C          60.2899   92.1760    3.5262 C.3     1  UNL1        0.1080
     19 C          59.4230   93.0675    2.6872 C.3     1  UNL1        0.0415
     20 C          60.0339   93.8992    1.5987 C.3     1  UNL1        0.0706
     21 N          61.5118   93.8396    1.3491 N.3     1  UNL1       -0.2974
     22 C          62.3788   92.9482    2.1880 C.3     1  UNL1        0.0706
     23 C          61.7678   92.1164    3.2766 C.3     1  UNL1        0.0415
     24 H          61.8681   94.7886    1.4627 H       1  UNL1        0.1232
     25 O          61.3468   86.1934   11.4807 O.3     1  UNL1       -0.4678
     26 C          62.5944   85.3608   11.5050 C.3     1  UNL1        0.2030
     27 C          62.9508   84.5795   12.7348 C.ar    1  UNL1        0.0415
     28 C          62.6958   83.1021   12.7848 C.ar    1  UNL1        0.0580
     29 CL         62.0846   82.4061   11.6050 Cl      1  UNL1       -0.0824
     30 C          63.0522   82.3207   14.0146 C.ar    1  UNL1        0.0135
     31 C          63.6635   83.0168   15.1944 C.ar    1  UNL1        0.0314
     32 C          63.9184   84.4941   15.1444 C.ar    1  UNL1        0.1505
     33 F          64.5297   85.1901   16.3242 F       1  UNL1       -0.2033
     34 C          63.5620   85.2754   13.9146 C.ar    1  UNL1        0.0852
     35 CL         63.8169   86.7527   13.8645 Cl      1  UNL1       -0.0801
     36 C          63.4855   85.3097   10.2995 C.3     1  UNL1        0.1251
     37 C          62.3022   84.8774    7.5768 C.1     1  UNL1       -0.0140
     38 C          62.8938   85.0936    8.9381 C.1     1  UNL1       -0.0737
@<TRIPOS>BOND
     1    37    38    3
     2    38    36    1
     3    36    26    1
     4    26    25    1
     5    25     1    1
     6     1     2   ar
     7     2     3    1
     8     2     4   ar
     9     4     5   ar
    10     5     6   ar
    11     6     7   ar
    12     7    13    1
    13    13    14   ar
    14    14    15   ar
    15    15    16   ar
    16    16    18    1
    17    18    19    1
    18    19    20    1
    19    20    21    1
    20    21    22    1
    21    22    23    1
    22    16    17   ar
    23     7     8   ar
    24     8     9   ar
    25     9    10   ar
    26    26    27    1
    27    27    28   ar
    28    28    29    1
    29    28    30   ar
    30    30    31   ar
    31    31    32   ar
    32    32    33    1
    33    32    34   ar
    34    34    35    1
    35    10     1   ar
    36    34    27   ar
    37    10     6   ar
    38    17    13   ar
    39    23    18    1
    40     3    11    1
    41     3    12    1
    42    21    24    1
