@<TRIPOS>MOLECULE
*****
 37 41 0 0 0
SMALL
GASTEIGER

@<TRIPOS>ATOM
      1 C          62.9713   88.6514   12.0151 C.ar    1  UNL1        0.1633
      2 N          62.0103   89.1357   10.9702 N.ar    1  UNL1       -0.2297
      3 C          61.3409   88.1544   10.0542 C.ar    1  UNL1        0.0755
      4 C          61.6325   86.6886   10.1833 C.ar    1  UNL1        0.0258
      5 C          62.5935   86.2043   11.2283 C.ar    1  UNL1        0.1306
      6 N          63.2629   87.1856   12.1442 N.ar    1  UNL1       -0.2122
      7 C          60.9632   85.7073    9.2674 C.3     1  UNL1        0.0481
      8 C          60.0022   86.1917    8.2224 C.3     1  UNL1        0.0841
      9 C          59.1557   87.0889    7.3690 C.3     1  UNL1        0.0199
     10 C          59.3738   88.5017    7.8233 C.3     1  UNL1        0.0252
     11 C          60.3551   88.4776    8.9575 C.3     1  UNL1        0.1188
     12 N          60.7435   87.0500    9.2042 N.3     1  UNL1       -0.1562
     13 N          62.8851   84.7385   11.3573 N.pl3   1  UNL1       -0.2900
     14 C          63.4114   83.9721   10.1802 C.3     1  UNL1        0.1242
     15 C          63.7030   82.5064   10.3093 C.3     1  UNL1        0.1636
     16 O          63.4683   81.8072   11.6154 O.3     1  UNL1       -0.3502
     17 C          62.9421   82.5737   12.7925 C.3     1  UNL1        0.1618
     18 C          62.6505   84.0394   12.6634 C.3     1  UNL1        0.1038
     19 C          62.1242   84.8059   13.8405 C.3     1  UNL1        0.0241
     20 C          64.9793   91.5954   14.7629 C.ar    1  UNL1        0.0516
     21 C          64.5876   90.2402   15.2728 C.ar    1  UNL1        0.0148
     22 C          63.9183   89.2588   14.3569 C.ar    1  UNL1        0.0043
     23 C          63.6406   89.6327   12.9310 C.ar    1  UNL1        0.0359
     24 C          64.0323   90.9879   12.4211 C.ar    1  UNL1        0.0043
     25 C          64.7017   91.9692   13.3370 C.ar    1  UNL1        0.0148
     26 N          67.7042   94.0434   16.2902 N.am    1  UNL1       -0.2887
     27 C          67.0349   93.0621   15.3742 C.2     1  UNL1        0.3045
     28 O          67.7518   92.5661   14.1535 O.2     1  UNL1       -0.2525
     29 N          65.6487   92.5768   15.6788 N.am    1  UNL1       -0.2683
     30 H          67.2337   94.3690   17.0913 H       1  UNL1        0.1510
     31 H          65.1782   92.9023   16.4800 H       1  UNL1        0.1564
     32 C          70.2390   93.5640   15.9825 C.3     1  UNL1        0.0230
     33 C          69.0904   94.5287   15.9854 C.3     1  UNL1        0.0910
     34 S          61.7045   86.5656   10.2491 S.O2    1  UNL1        0.0459
     35 C          62.9067   86.1080   11.0206 C.3     1  UNL1        0.1960
     36 O          60.5893   86.5144   11.2510 O.2     1  UNL1       -0.1572
     37 O          62.8197   86.6167    9.2473 O.2     1  UNL1       -0.1572
@<TRIPOS>BOND
     1    32    33    1
     2    33    26    1
     3    26    27   am
     4    27    28    2
     5    27    29   am
     6    29    20    1
     7    20    21   ar
     8    21    22   ar
     9    22    23   ar
    10    23     1    1
    11     1     2   ar
    12     2     3   ar
    13     3     4   ar
    14     4     5   ar
    15     5    13    1
    16    13    14    1
    17    14    15    1
    18    15    16    1
    19    16    17    1
    20    17    18    1
    21    18    19    1
    22     5     6   ar
    23     4     7    1
    24     8     7    1
    25     8     9    1
    26     9    10    1
    27    11    10    1
    28    11    12    1
    29    12    34    1
    30    34    35    1
    31    34    36    2
    32    34    37    2
    33    23    24   ar
    34    24    25   ar
    35    25    20   ar
    36     6     1   ar
    37    12     8    1
    38    11     3    1
    39    18    13    1
    40    26    30    1
    41    29    31    1
@<TRIPOS>MOLECULE
*****
 37 41 0 0 0
SMALL
GASTEIGER

@<TRIPOS>ATOM
      1 C          64.3852   91.1084   11.8779 C.ar    1  UNL1        0.1633
      2 N          64.8452   90.9021   13.2906 N.ar    1  UNL1       -0.2297
      3 C          65.8567   91.8315   13.8933 C.ar    1  UNL1        0.0755
      4 C          66.4081   92.9672   13.0833 C.ar    1  UNL1        0.0258
      5 C          65.9480   93.1735   11.6705 C.ar    1  UNL1        0.1306
      6 N          64.9366   92.2441   11.0678 N.ar    1  UNL1       -0.2122
      7 C          67.4195   93.8966   13.6860 C.3     1  UNL1        0.0481
      8 C          67.8795   93.6903   15.0987 C.3     1  UNL1        0.0841
      9 C          68.0382   93.1257   16.4793 C.3     1  UNL1        0.0199
     10 C          67.1359   91.9335   16.5990 C.3     1  UNL1        0.0252
     11 C          66.4195   91.7612   15.2924 C.3     1  UNL1        0.1188
     12 N          66.8791   92.8470   14.3651 N.3     1  UNL1       -0.1562
     13 N          66.4994   94.3092   10.8604 N.pl3   1  UNL1       -0.2900
     14 C          66.1039   95.7202   11.1807 C.3     1  UNL1        0.1242
     15 C          66.6552   96.8559   10.3707 C.3     1  UNL1        0.1636
     16 O          67.6021   96.5805    9.2404 O.3     1  UNL1       -0.3502
     17 C          67.9976   95.1695    8.9201 C.3     1  UNL1        0.1618
     18 C          67.4462   94.0338    9.7302 C.3     1  UNL1        0.1038
     19 C          67.8417   92.6228    9.4100 C.3     1  UNL1        0.0241
     20 C          61.3510   88.3202   10.0698 C.ar    1  UNL1        0.0516
     21 C          62.1246   87.9010   11.2847 C.ar    1  UNL1        0.0148
     22 C          63.1360   88.8304   11.8874 C.ar    1  UNL1        0.0043
     23 C          63.3738   90.1790   11.2752 C.ar    1  UNL1        0.0359
     24 C          62.6002   90.5982   10.0603 C.ar    1  UNL1        0.0043
     25 C          61.5888   89.6687    9.4576 C.ar    1  UNL1        0.0148
     26 N          59.7267   85.5394    7.7505 N.am    1  UNL1       -0.2887
     27 C          60.7381   86.4688    8.3531 C.2     1  UNL1        0.3045
     28 O          62.1483   86.4763    7.8417 O.2     1  UNL1       -0.2525
     29 N          60.3395   87.3907    9.4671 N.am    1  UNL1       -0.2683
     30 H          58.8012   85.5344    8.0862 H       1  UNL1        0.1510
     31 H          59.4140   87.3858    9.8028 H       1  UNL1        0.1564
     32 C          61.5727   84.4595    6.2754 C.3     1  UNL1        0.0230
     33 C          60.1254   84.6175    6.6365 C.3     1  UNL1        0.0910
     34 S          66.4191   93.0533   12.9524 S.O2    1  UNL1        0.0459
     35 C          65.7010   93.4625   11.7007 C.3     1  UNL1        0.1960
     36 O          67.5423   92.1893   12.4605 O.2     1  UNL1       -0.1572
     37 O          65.2959   93.9173   13.4443 O.2     1  UNL1       -0.1572
@<TRIPOS>BOND
     1    32    33    1
     2    33    26    1
     3    26    27   am
     4    27    28    2
     5    27    29   am
     6    29    20    1
     7    20    21   ar
     8    21    22   ar
     9    22    23   ar
    10    23     1    1
    11     1     2   ar
    12     2     3   ar
    13     3     4   ar
    14     4     5   ar
    15     5    13    1
    16    13    14    1
    17    14    15    1
    18    15    16    1
    19    16    17    1
    20    17    18    1
    21    18    19    1
    22     5     6   ar
    23     4     7    1
    24     8     7    1
    25     8     9    1
    26     9    10    1
    27    11    10    1
    28    11    12    1
    29    12    34    1
    30    34    35    1
    31    34    36    2
    32    34    37    2
    33    23    24   ar
    34    24    25   ar
    35    25    20   ar
    36     6     1   ar
    37    12     8    1
    38    11     3    1
    39    18    13    1
    40    26    30    1
    41    29    31    1
@<TRIPOS>MOLECULE
*****
 37 41 0 0 0
SMALL
GASTEIGER

@<TRIPOS>ATOM
      1 C          61.7255   86.2627   10.7873 C.ar    1  UNL1        0.1633
      2 N          62.4672   87.0619   11.8174 N.ar    1  UNL1       -0.2297
      3 C          63.2512   86.3621   12.8879 C.ar    1  UNL1        0.0755
      4 C          63.2934   84.8632   12.9282 C.ar    1  UNL1        0.0258
      5 C          62.5516   84.0641   11.8980 C.ar    1  UNL1        0.1306
      6 N          61.7676   84.7638   10.8276 N.ar    1  UNL1       -0.2122
      7 C          64.0773   84.1635   13.9986 C.3     1  UNL1        0.0481
      8 C          64.8191   84.9626   15.0287 C.3     1  UNL1        0.0841
      9 C          65.3772   86.1149   15.8102 C.3     1  UNL1        0.0199
     10 C          64.9002   87.3842   15.1689 C.3     1  UNL1        0.0252
     11 C          64.0474   87.0165   13.9911 C.3     1  UNL1        0.1188
     12 N          63.9972   85.5198   13.9044 N.3     1  UNL1       -0.1562
     13 N          62.5937   82.5652   11.9383 N.pl3   1  UNL1       -0.2900
     14 C          61.9346   81.8264   13.0650 C.3     1  UNL1        0.1242
     15 C          61.9767   80.3276   13.1053 C.3     1  UNL1        0.1636
     16 O          62.6780   79.5676   12.0189 O.3     1  UNL1       -0.3502
     17 C          63.3372   80.3064   10.8921 C.3     1  UNL1        0.1618
     18 C          63.2950   81.8052   10.8518 C.3     1  UNL1        0.1038
     19 C          63.9541   82.5441    9.7250 C.3     1  UNL1        0.0241
     20 C          59.3737   88.3620    7.5761 C.ar    1  UNL1        0.0516
     21 C          59.5773   86.8774    7.5075 C.ar    1  UNL1        0.0148
     22 C          60.3612   86.1777    8.5779 C.ar    1  UNL1        0.0043
     23 C          60.9415   86.9625    9.7169 C.ar    1  UNL1        0.0359
     24 C          60.7380   88.4470    9.7854 C.ar    1  UNL1        0.0043
     25 C          59.9540   89.1468    8.7150 C.ar    1  UNL1        0.0148
     26 N          58.3525   91.0029    4.7952 N.am    1  UNL1       -0.2887
     27 C          59.1365   90.3032    5.8657 C.2     1  UNL1        0.3045
     28 O          60.4673   90.8451    6.2962 O.2     1  UNL1       -0.2525
     29 N          58.5897   89.0617    6.5056 N.am    1  UNL1       -0.2683
     30 H          57.4791   90.6472    4.5127 H       1  UNL1        0.1510
     31 H          57.7163   88.7060    6.2230 H       1  UNL1        0.1564
     32 C          60.1244   92.1667    3.2933 C.3     1  UNL1        0.0230
     33 C          58.8993   92.2445    4.1554 C.3     1  UNL1        0.0910
     34 S          63.2554   84.7207   12.8743 S.O2    1  UNL1        0.0459
     35 C          62.2281   83.9890   12.0624 C.3     1  UNL1        0.1960
     36 O          64.5267   84.5403   12.0988 O.2     1  UNL1       -0.1572
     37 O          61.9842   84.9011   13.6497 O.2     1  UNL1       -0.1572
@<TRIPOS>BOND
     1    32    33    1
     2    33    26    1
     3    26    27   am
     4    27    28    2
     5    27    29   am
     6    29    20    1
     7    20    21   ar
     8    21    22   ar
     9    22    23   ar
    10    23     1    1
    11     1     2   ar
    12     2     3   ar
    13     3     4   ar
    14     4     5   ar
    15     5    13    1
    16    13    14    1
    17    14    15    1
    18    15    16    1
    19    16    17    1
    20    17    18    1
    21    18    19    1
    22     5     6   ar
    23     4     7    1
    24     8     7    1
    25     8     9    1
    26     9    10    1
    27    11    10    1
    28    11    12    1
    29    12    34    1
    30    34    35    1
    31    34    36    2
    32    34    37    2
    33    23    24   ar
    34    24    25   ar
    35    25    20   ar
    36     6     1   ar
    37    12     8    1
    38    11     3    1
    39    18    13    1
    40    26    30    1
    41    29    31    1
@<TRIPOS>MOLECULE
*****
 37 41 0 0 0
SMALL
GASTEIGER

@<TRIPOS>ATOM
      1 C          60.8583   93.9574   -1.8337 C.ar    1  UNL1        0.1633
      2 N          61.9625   94.9113   -2.1812 N.ar    1  UNL1       -0.2297
      3 C          63.0990   95.1233   -1.2253 C.ar    1  UNL1        0.0755
      4 C          63.1311   94.3813    0.0780 C.ar    1  UNL1        0.0258
      5 C          62.0268   93.4274    0.4254 C.ar    1  UNL1        0.1306
      6 N          60.8904   93.2155   -0.5304 N.ar    1  UNL1       -0.2122
      7 C          64.2675   94.5933    1.0339 C.3     1  UNL1        0.0481
      8 C          65.3718   95.5471    0.6864 C.3     1  UNL1        0.0841
      9 C          66.2136   96.5488   -0.0470 C.3     1  UNL1        0.0199
     10 C          65.5389   96.8548   -1.3513 C.3     1  UNL1        0.0252
     11 C          64.2802   96.0422   -1.4240 C.3     1  UNL1        0.1188
     12 N          64.1769   95.2340   -0.1646 N.3     1  UNL1       -0.1562
     13 N          62.0589   92.6855    1.7287 N.pl3   1  UNL1       -0.2900
     14 C          63.1989   91.7609    2.0375 C.3     1  UNL1        0.1242
     15 C          63.2311   91.0190    3.3407 C.3     1  UNL1        0.1636
     16 O          62.1231   91.2017    4.3352 O.3     1  UNL1       -0.3502
     17 C          60.9831   92.1263    4.0265 C.3     1  UNL1        0.1618
     18 C          60.9510   92.8682    2.7232 C.3     1  UNL1        0.1038
     19 C          59.8109   93.7929    2.4144 C.3     1  UNL1        0.0241
     20 C          57.4491   93.3216   -4.7012 C.ar    1  UNL1        0.0516
     21 C          58.6182   94.1715   -5.1026 C.ar    1  UNL1        0.0148
     22 C          59.7545   94.3834   -4.1467 C.ar    1  UNL1        0.0043
     23 C          59.7219   93.7455   -2.7895 C.ar    1  UNL1        0.0359
     24 C          58.5528   92.8957   -2.3882 C.ar    1  UNL1        0.0043
     25 C          57.4164   92.6837   -3.3440 C.ar    1  UNL1        0.0148
     26 N          54.6801   91.5102   -6.8926 N.am    1  UNL1       -0.2887
     27 C          55.8165   91.7221   -5.9367 C.2     1  UNL1        0.3045
     28 O          56.4568   90.5463   -5.2603 O.2     1  UNL1       -0.2525
     29 N          56.3126   93.1097   -5.6572 N.am    1  UNL1       -0.2683
     30 H          54.2599   92.2820   -7.3365 H       1  UNL1        0.1510
     31 H          55.8924   93.8815   -6.1011 H       1  UNL1        0.1564
     32 C          53.3034   89.4263   -6.1772 C.3     1  UNL1        0.0230
     33 C          54.1840   90.1225   -7.1721 C.3     1  UNL1        0.0910
     34 S          63.0726   94.2801    0.1829 S.O2    1  UNL1        0.0459
     35 C          62.1675   93.0932    0.3310 C.3     1  UNL1        0.1960
     36 O          62.3853   95.3605    0.9642 O.2     1  UNL1       -0.1572
     37 O          63.7600   93.1998   -0.5984 O.2     1  UNL1       -0.1572
@<TRIPOS>BOND
     1    32    33    1
     2    33    26    1
     3    26    27   am
     4    27    28    2
     5    27    29   am
     6    29    20    1
     7    20    21   ar
     8    21    22   ar
     9    22    23   ar
    10    23     1    1
    11     1     2   ar
    12     2     3   ar
    13     3     4   ar
    14     4     5   ar
    15     5    13    1
    16    13    14    1
    17    14    15    1
    18    15    16    1
    19    16    17    1
    20    17    18    1
    21    18    19    1
    22     5     6   ar
    23     4     7    1
    24     8     7    1
    25     8     9    1
    26     9    10    1
    27    11    10    1
    28    11    12    1
    29    12    34    1
    30    34    35    1
    31    34    36    2
    32    34    37    2
    33    23    24   ar
    34    24    25   ar
    35    25    20   ar
    36     6     1   ar
    37    12     8    1
    38    11     3    1
    39    18    13    1
    40    26    30    1
    41    29    31    1
@<TRIPOS>MOLECULE
*****
 37 41 0 0 0
SMALL
GASTEIGER

@<TRIPOS>ATOM
      1 C          59.4763   94.7333   -2.2569 C.ar    1  UNL1        0.1633
      2 N          60.0686   94.5408   -3.6215 N.ar    1  UNL1       -0.2297
      3 C          61.5530   94.3953   -3.7812 C.ar    1  UNL1        0.0755
      4 C          62.4451   94.4421   -2.5762 C.ar    1  UNL1        0.0258
      5 C          61.8528   94.6346   -1.2115 C.ar    1  UNL1        0.1306
      6 N          60.3684   94.7801   -1.0519 N.ar    1  UNL1       -0.2122
      7 C          63.9294   94.2966   -2.7358 C.3     1  UNL1        0.0481
      8 C          64.5217   94.1042   -4.1005 C.3     1  UNL1        0.0841
      9 C          64.6610   93.9388   -5.5848 C.3     1  UNL1        0.0199
     10 C          63.2889   93.9958   -6.1883 C.3     1  UNL1        0.0252
     11 C          62.3017   94.1964   -5.0770 C.3     1  UNL1        0.1188
     12 N          63.0635   94.2634   -3.7866 N.3     1  UNL1       -0.1562
     13 N          62.7449   94.6814   -0.0065 N.pl3   1  UNL1       -0.2900
     14 C          63.6682   95.8457    0.1983 C.3     1  UNL1        0.1242
     15 C          64.5602   95.8925    1.4032 C.3     1  UNL1        0.1636
     16 O          64.5291   94.7751    2.4034 O.3     1  UNL1       -0.3502
     17 C          63.6058   93.6109    2.1986 C.3     1  UNL1        0.1618
     18 C          62.7137   93.5640    0.9936 C.3     1  UNL1        0.1038
     19 C          61.7904   92.3997    0.7888 C.3     1  UNL1        0.0241
     20 C          55.0233   95.1699   -1.7779 C.ar    1  UNL1        0.0516
     21 C          55.9259   96.3338   -1.4937 C.ar    1  UNL1        0.0148
     22 C          57.4103   96.1882   -1.6534 C.ar    1  UNL1        0.0043
     23 C          57.9920   94.8788   -2.0972 C.ar    1  UNL1        0.0359
     24 C          57.0894   93.7150   -2.3815 C.ar    1  UNL1        0.0043
     25 C          55.6050   93.8605   -2.2218 C.ar    1  UNL1        0.0148
     26 N          51.2481   96.1384   -2.5267 N.am    1  UNL1       -0.2887
     27 C          52.7325   95.9929   -2.6863 C.2     1  UNL1        0.3045
     28 O          53.4105   96.5247   -3.9142 O.2     1  UNL1       -0.2525
     29 N          53.5389   95.3155   -1.6183 N.am    1  UNL1       -0.2683
     30 H          50.8032   95.7894   -1.7208 H       1  UNL1        0.1510
     31 H          53.0939   94.9665   -0.8124 H       1  UNL1        0.1564
     32 C          50.1894   96.1194   -4.8991 C.3     1  UNL1        0.0230
     33 C          50.4418   96.8158   -3.5948 C.3     1  UNL1        0.0910
     34 S          62.4713   94.4558   -2.4220 S.O2    1  UNL1        0.0459
     35 C          61.9052   95.0022   -1.1449 C.3     1  UNL1        0.1960
     36 O          62.4360   92.9688   -2.2276 O.2     1  UNL1       -0.1572
     37 O          62.5066   95.9427   -2.6163 O.2     1  UNL1       -0.1572
@<TRIPOS>BOND
     1    32    33    1
     2    33    26    1
     3    26    27   am
     4    27    28    2
     5    27    29   am
     6    29    20    1
     7    20    21   ar
     8    21    22   ar
     9    22    23   ar
    10    23     1    1
    11     1     2   ar
    12     2     3   ar
    13     3     4   ar
    14     4     5   ar
    15     5    13    1
    16    13    14    1
    17    14    15    1
    18    15    16    1
    19    16    17    1
    20    17    18    1
    21    18    19    1
    22     5     6   ar
    23     4     7    1
    24     8     7    1
    25     8     9    1
    26     9    10    1
    27    11    10    1
    28    11    12    1
    29    12    34    1
    30    34    35    1
    31    34    36    2
    32    34    37    2
    33    23    24   ar
    34    24    25   ar
    35    25    20   ar
    36     6     1   ar
    37    12     8    1
    38    11     3    1
    39    18    13    1
    40    26    30    1
    41    29    31    1
@<TRIPOS>MOLECULE
*****
 37 41 0 0 0
SMALL
GASTEIGER

@<TRIPOS>ATOM
      1 C          63.5101   87.5713   12.8301 C.ar    1  UNL1        0.1633
      2 N          63.8090   86.2757   13.5246 N.ar    1  UNL1       -0.2297
      3 C          63.3024   84.9844   12.9536 C.ar    1  UNL1        0.0755
      4 C          62.4969   84.9887   11.6882 C.ar    1  UNL1        0.0258
      5 C          62.1981   86.2843   10.9937 C.ar    1  UNL1        0.1306
      6 N          62.7047   87.5755   11.5646 N.ar    1  UNL1       -0.2122
      7 C          61.9903   83.6974   11.1172 C.3     1  UNL1        0.0481
      8 C          62.2891   82.4019   11.8117 C.3     1  UNL1        0.0841
      9 C          62.8074   81.3994   12.7998 C.3     1  UNL1        0.0199
     10 C          63.5649   82.1424   13.8600 C.3     1  UNL1        0.0252
     11 C          63.5148   83.6042   13.5272 C.3     1  UNL1        0.1188
     12 N          62.7263   83.7646   12.2612 N.3     1  UNL1       -0.1562
     13 N          61.3927   86.2886    9.7283 N.pl3   1  UNL1       -0.2900
     14 C          61.8421   85.4757    8.5504 C.3     1  UNL1        0.1242
     15 C          61.0367   85.4800    7.2851 C.3     1  UNL1        0.1636
     16 O          59.7819   86.2971    7.1975 O.3     1  UNL1       -0.3502
     17 C          59.3325   87.1099    8.3753 C.3     1  UNL1        0.1618
     18 C          60.1379   87.1057    9.6407 C.3     1  UNL1        0.1038
     19 C          59.6885   87.9185   10.8186 C.3     1  UNL1        0.0241
     20 C          65.0300   91.4450   14.5429 C.ar    1  UNL1        0.0516
     21 C          65.0966   90.1873   15.3577 C.ar    1  UNL1        0.0148
     22 C          64.5900   88.8961   14.7867 C.ar    1  UNL1        0.0043
     23 C          64.0168   88.8625   13.4010 C.ar    1  UNL1        0.0359
     24 C          63.9501   90.1202   12.5863 C.ar    1  UNL1        0.0043
     25 C          64.4567   91.4114   13.1572 C.ar    1  UNL1        0.0148
     26 N          67.5188   94.2834   15.7674 N.am    1  UNL1       -0.2887
     27 C          67.0123   92.9922   15.1964 C.2     1  UNL1        0.3045
     28 O          67.9814   91.9568   14.7078 O.2     1  UNL1       -0.2525
     29 N          65.5366   92.7363   15.1139 N.am    1  UNL1       -0.2683
     30 H          66.8828   94.9630   16.0880 H       1  UNL1        0.1510
     31 H          64.9005   93.4159   15.4346 H       1  UNL1        0.1564
     32 C          69.9040   93.5011   16.4372 C.3     1  UNL1        0.0230
     33 C          68.9946   94.5392   15.8498 C.3     1  UNL1        0.0910
     34 S          62.4275   85.0601   11.5668 S.O2    1  UNL1        0.0459
     35 C          62.4115   86.2568   10.6626 C.3     1  UNL1        0.1960
     36 O          61.2954   85.3092   12.5187 O.2     1  UNL1       -0.1572
     37 O          63.5596   84.8109   10.6148 O.2     1  UNL1       -0.1572
@<TRIPOS>BOND
     1    32    33    1
     2    33    26    1
     3    26    27   am
     4    27    28    2
     5    27    29   am
     6    29    20    1
     7    20    21   ar
     8    21    22   ar
     9    22    23   ar
    10    23     1    1
    11     1     2   ar
    12     2     3   ar
    13     3     4   ar
    14     4     5   ar
    15     5    13    1
    16    13    14    1
    17    14    15    1
    18    15    16    1
    19    16    17    1
    20    17    18    1
    21    18    19    1
    22     5     6   ar
    23     4     7    1
    24     8     7    1
    25     8     9    1
    26     9    10    1
    27    11    10    1
    28    11    12    1
    29    12    34    1
    30    34    35    1
    31    34    36    2
    32    34    37    2
    33    23    24   ar
    34    24    25   ar
    35    25    20   ar
    36     6     1   ar
    37    12     8    1
    38    11     3    1
    39    18    13    1
    40    26    30    1
    41    29    31    1
@<TRIPOS>MOLECULE
*****
 37 41 0 0 0
SMALL
GASTEIGER

@<TRIPOS>ATOM
      1 C          63.4142   88.6320   11.7040 C.ar    1  UNL1        0.1633
      2 N          63.5962   87.7167   12.8784 N.ar    1  UNL1       -0.2297
      3 C          63.0929   86.3050   12.8141 C.ar    1  UNL1        0.0755
      4 C          62.4076   85.8088   11.5755 C.ar    1  UNL1        0.0258
      5 C          62.2256   86.7242   10.4011 C.ar    1  UNL1        0.1306
      6 N          62.7289   88.1357   10.4654 N.ar    1  UNL1       -0.2122
      7 C          61.9042   84.3972   11.5112 C.3     1  UNL1        0.0481
      8 C          62.0862   83.4819   12.6856 C.3     1  UNL1        0.0841
      9 C          62.4713   82.9517   14.0348 C.3     1  UNL1        0.0199
     10 C          63.1576   84.0532   14.7870 C.3     1  UNL1        0.0252
     11 C          63.1966   85.2641   13.9026 C.3     1  UNL1        0.1188
     12 N          62.5344   84.9111   12.6038 N.3     1  UNL1       -0.1562
     13 N          61.5403   86.2280    9.1625 N.pl3   1  UNL1       -0.2900
     14 C          62.2482   85.2771    8.2435 C.3     1  UNL1        0.1242
     15 C          61.5630   84.7809    7.0050 C.3     1  UNL1        0.1636
     16 O          60.1697   85.2355    6.6854 O.3     1  UNL1       -0.3502
     17 C          59.4618   86.1864    7.6044 C.3     1  UNL1        0.1618
     18 C          60.1471   86.6826    8.8431 C.3     1  UNL1        0.1038
     19 C          59.4391   87.6335    9.7621 C.3     1  UNL1        0.0241
     20 C          64.9242   92.8666   11.8968 C.ar    1  UNL1        0.0516
     21 C          64.2396   92.3701   10.6579 C.ar    1  UNL1        0.0148
     22 C          63.7363   90.9586   10.5937 C.ar    1  UNL1        0.0043
     23 C          63.9176   90.0435   11.7683 C.ar    1  UNL1        0.0359
     24 C          64.6022   90.5400   13.0072 C.ar    1  UNL1        0.0043
     25 C          65.1055   91.9516   13.0715 C.ar    1  UNL1        0.0148
     26 N          66.7331   96.2525   10.8897 N.am    1  UNL1       -0.2887
     27 C          66.2298   94.8409   10.8254 C.2     1  UNL1        0.3045
     28 O          66.5287   93.9920    9.6254 O.2     1  UNL1       -0.2525
     29 N          65.4276   94.2783   11.9611 N.am    1  UNL1       -0.2683
     30 H          66.5369   96.8097   11.6773 H       1  UNL1        0.1510
     31 H          65.2314   94.8354   12.7487 H       1  UNL1        0.1564
     32 C          66.9530   96.8557    8.3722 C.3     1  UNL1        0.0230
     33 C          67.5353   96.8151    9.7540 C.3     1  UNL1        0.0910
     34 S          62.3525   85.8264   11.4295 S.O2    1  UNL1        0.0459
     35 C          62.4793   86.5829   10.1405 C.3     1  UNL1        0.1960
     36 O          61.0985   86.3701   12.0476 O.2     1  UNL1       -0.1572
     37 O          63.6064   85.2827   10.8114 O.2     1  UNL1       -0.1572
@<TRIPOS>BOND
     1    32    33    1
     2    33    26    1
     3    26    27   am
     4    27    28    2
     5    27    29   am
     6    29    20    1
     7    20    21   ar
     8    21    22   ar
     9    22    23   ar
    10    23     1    1
    11     1     2   ar
    12     2     3   ar
    13     3     4   ar
    14     4     5   ar
    15     5    13    1
    16    13    14    1
    17    14    15    1
    18    15    16    1
    19    16    17    1
    20    17    18    1
    21    18    19    1
    22     5     6   ar
    23     4     7    1
    24     8     7    1
    25     8     9    1
    26     9    10    1
    27    11    10    1
    28    11    12    1
    29    12    34    1
    30    34    35    1
    31    34    36    2
    32    34    37    2
    33    23    24   ar
    34    24    25   ar
    35    25    20   ar
    36     6     1   ar
    37    12     8    1
    38    11     3    1
    39    18    13    1
    40    26    30    1
    41    29    31    1
@<TRIPOS>MOLECULE
*****
 37 41 0 0 0
SMALL
GASTEIGER

@<TRIPOS>ATOM
      1 C          61.7502   85.9764   10.7519 C.ar    1  UNL1        0.1633
      2 N          62.5104   86.7284   11.8038 N.ar    1  UNL1       -0.2297
      3 C          63.3174   85.9814   12.8241 C.ar    1  UNL1        0.0755
      4 C          63.3641   84.4825   12.7925 C.ar    1  UNL1        0.0258
      5 C          62.6038   83.7305   11.7405 C.ar    1  UNL1        0.1306
      6 N          61.7969   84.4774   10.7203 N.ar    1  UNL1       -0.2122
      7 C          64.1711   83.7355   13.8127 C.3     1  UNL1        0.0481
      8 C          64.9313   84.4875   14.8646 C.3     1  UNL1        0.0841
      9 C          65.5021   85.6034   15.6887 C.3     1  UNL1        0.0199
     10 C          65.0092   86.9000   15.1179 C.3     1  UNL1        0.0252
     11 C          64.1339   86.5856   13.9411 C.3     1  UNL1        0.1188
     12 N          64.0857   85.0945   13.7845 N.3     1  UNL1       -0.1562
     13 N          62.6505   82.2315   11.7088 N.pl3   1  UNL1       -0.2900
     14 C          63.2147   81.5238   10.5126 C.3     1  UNL1        0.1242
     15 C          63.2614   80.0250   10.4810 C.3     1  UNL1        0.1636
     16 O          62.7439   79.2337   11.6455 O.3     1  UNL1       -0.3502
     17 C          62.1798   79.9414   12.8416 C.3     1  UNL1        0.1618
     18 C          62.1331   81.4403   12.8733 C.3     1  UNL1        0.1038
     19 C          61.5689   82.1480   14.0695 C.3     1  UNL1        0.0241
     20 C          59.3294   88.2172    7.6912 C.ar    1  UNL1        0.0516
     21 C          59.8081   88.9178    8.9282 C.ar    1  UNL1        0.0148
     22 C          60.6151   88.1708    9.9484 C.ar    1  UNL1        0.0043
     23 C          60.9433   86.7233    9.7317 C.ar    1  UNL1        0.0359
     24 C          60.4645   86.0227    8.4947 C.ar    1  UNL1        0.0043
     25 C          59.6576   86.7697    7.4745 C.ar    1  UNL1        0.0148
     26 N          58.2742   90.9476    5.0113 N.am    1  UNL1       -0.2887
     27 C          59.0812   90.2006    6.0315 C.2     1  UNL1        0.3045
     28 O          60.4470   90.6901    6.4123 O.2     1  UNL1       -0.2525
     29 N          58.5224   88.9642    6.6710 N.am    1  UNL1       -0.2683
     30 H          57.3778   90.6263    4.7614 H       1  UNL1        0.1510
     31 H          57.6260   88.6429    6.4211 H       1  UNL1        0.1564
     32 C          59.9899   92.0801    3.4227 C.3     1  UNL1        0.0230
     33 C          58.8330   92.1840    4.3719 C.3     1  UNL1        0.0910
     34 S          63.3255   84.3425   12.7326 S.O2    1  UNL1        0.0459
     35 C          62.8960   83.5584   11.5282 C.3     1  UNL1        0.1960
     36 O          62.0518   84.5676   13.4922 O.2     1  UNL1       -0.1572
     37 O          64.5992   84.1174   11.9730 O.2     1  UNL1       -0.1572
@<TRIPOS>BOND
     1    32    33    1
     2    33    26    1
     3    26    27   am
     4    27    28    2
     5    27    29   am
     6    29    20    1
     7    20    21   ar
     8    21    22   ar
     9    22    23   ar
    10    23     1    1
    11     1     2   ar
    12     2     3   ar
    13     3     4   ar
    14     4     5   ar
    15     5    13    1
    16    13    14    1
    17    14    15    1
    18    15    16    1
    19    16    17    1
    20    17    18    1
    21    18    19    1
    22     5     6   ar
    23     4     7    1
    24     8     7    1
    25     8     9    1
    26     9    10    1
    27    11    10    1
    28    11    12    1
    29    12    34    1
    30    34    35    1
    31    34    36    2
    32    34    37    2
    33    23    24   ar
    34    24    25   ar
    35    25    20   ar
    36     6     1   ar
    37    12     8    1
    38    11     3    1
    39    18    13    1
    40    26    30    1
    41    29    31    1
