@<TRIPOS>MOLECULE
*****
 28 31 0 0 0
SMALL
GASTEIGER

@<TRIPOS>ATOM
      1 C          64.6330   90.0143   14.1134 C.ar    1  UNL1        0.0593
      2 C          63.8840   90.4039   12.8736 C.ar    1  UNL1        0.0152
      3 C          64.3393   91.5795   12.0606 C.ar    1  UNL1        0.0035
      4 C          65.5435   92.3652   12.4874 C.ar    1  UNL1        0.0277
      5 C          66.2925   91.9756   13.7272 C.ar    1  UNL1        0.1413
      6 F          67.4968   92.7614   14.1541 F       1  UNL1       -0.2041
      7 C          65.8372   90.8002   14.5402 C.ar    1  UNL1        0.0446
      8 C          65.9989   93.5408   11.6744 C.ar    1  UNL1        0.0067
      9 C          66.0590   94.9045   12.2960 C.ar    1  UNL1        0.0192
     10 C          66.5143   96.0800   11.4830 C.ar    1  UNL1        0.0815
     11 N          66.9096   95.8916   10.0484 N.ar    1  UNL1       -0.2874
     12 C          67.3952   96.8551    9.0063 C.ar    1  UNL1        0.1022
     13 C          67.6352   96.0868    7.7406 C.ar    1  UNL1        0.1195
     14 N          67.2979   94.6484    8.0004 N.ar    1  UNL1       -0.2248
     15 C          66.8494   94.5278    9.4267 C.ar    1  UNL1        0.1479
     16 C          66.3941   93.3524   10.2397 C.ar    1  UNL1        0.0375
     17 C          63.7915   86.5645   15.6806 C.3     1  UNL1        0.2100
     18 C          64.4189   87.3948   14.6002 C.3     1  UNL1        0.1468
     19 N          64.1777   88.8389   14.9264 N.am    1  UNL1       -0.2212
     20 C          63.4012   88.9011   16.2083 C.2     1  UNL1        0.4088
     21 O          62.9437   90.1497   16.9022 O.2     1  UNL1       -0.2258
     22 O          63.1626   87.4955   16.6744 O.3     1  UNL1       -0.4345
     23 C          63.7929   85.0663   15.7541 C.3     1  UNL1        0.1352
     24 C          64.3003   83.3515   12.2113 C.3     1  UNL1        0.0946
     25 C          63.6944   84.1564   13.3226 C.2     1  UNL1        0.2231
     26 O          62.3843   84.8564   13.1137 O.2     1  UNL1       -0.2751
     27 N          64.3987   84.2614   14.6428 N.am    1  UNL1       -0.3011
     28 H          65.2586   83.8020   14.7799 H       1  UNL1        0.1495
@<TRIPOS>BOND
     1    24    25    1
     2    25    26    2
     3    25    27   am
     4    27    23    1
     5    17    23    1
     6    17    18    1
     7    18    19    1
     8    19     1    1
     9     1     2   ar
    10     2     3   ar
    11     3     4   ar
    12     4     8    1
    13     8     9   ar
    14     9    10   ar
    15    10    11   ar
    16    11    12   ar
    17    12    13   ar
    18    13    14   ar
    19    14    15   ar
    20    15    16   ar
    21     4     5   ar
    22     5     6    1
    23     5     7   ar
    24    19    20   am
    25    20    21    2
    26    20    22    1
    27    22    17    1
    28     7     1   ar
    29    16     8   ar
    30    15    11   ar
    31    27    28    1
@<TRIPOS>MOLECULE
*****
 28 31 0 0 0
SMALL
GASTEIGER

@<TRIPOS>ATOM
      1 C          64.4013   88.7056   14.2796 C.ar    1  UNL1        0.0593
      2 C          64.8539   87.6353   15.2280 C.ar    1  UNL1        0.0152
      3 C          64.5532   86.1956   14.9329 C.ar    1  UNL1        0.0035
      4 C          63.8000   85.8264   13.6894 C.ar    1  UNL1        0.0277
      5 C          63.3474   86.8967   12.7410 C.ar    1  UNL1        0.1413
      6 F          62.5942   86.5275   11.4975 F       1  UNL1       -0.2041
      7 C          63.6481   88.3363   13.0361 C.ar    1  UNL1        0.0446
      8 C          63.4994   84.3867   13.3943 C.ar    1  UNL1        0.0067
      9 C          64.2515   83.6699   12.3125 C.ar    1  UNL1        0.0192
     10 C          63.9508   82.2303   12.0174 C.ar    1  UNL1        0.0815
     11 N          62.8979   81.5075   12.8041 N.ar    1  UNL1       -0.2874
     12 C          62.3871   80.0986   12.7397 C.ar    1  UNL1        0.1022
     13 C          61.3193   79.9447   13.7818 C.ar    1  UNL1        0.1195
     14 N          61.1701   81.2585   14.4902 N.ar    1  UNL1       -0.2248
     15 C          62.1457   82.2243   13.8859 C.ar    1  UNL1        0.1479
     16 C          62.4465   83.6639   14.1810 C.ar    1  UNL1        0.0375
     17 C          65.6368   92.3814   14.4465 C.3     1  UNL1        0.2100
     18 C          65.6427   91.0250   13.8059 C.3     1  UNL1        0.1468
     19 N          64.7019   90.1452   14.5747 N.am    1  UNL1       -0.2212
     20 C          64.1146   90.9579   15.6903 C.2     1  UNL1        0.4088
     21 O          63.1235   90.4736   16.7067 O.2     1  UNL1       -0.2258
     22 O          64.6923   92.3399   15.6111 O.3     1  UNL1       -0.4345
     23 C          66.4352   93.5704   14.0007 C.3     1  UNL1        0.1352
     24 C          66.3013   94.4943   10.1434 C.3     1  UNL1        0.0946
     25 C          66.6525   93.7915   11.4212 C.2     1  UNL1        0.2231
     26 O          67.5722   92.6067   11.3971 O.2     1  UNL1       -0.2751
     27 N          66.0840   94.2733   12.7229 N.am    1  UNL1       -0.3011
     28 H          65.4803   95.0509   12.7387 H       1  UNL1        0.1495
@<TRIPOS>BOND
     1    24    25    1
     2    25    26    2
     3    25    27   am
     4    27    23    1
     5    17    23    1
     6    17    18    1
     7    18    19    1
     8    19     1    1
     9     1     2   ar
    10     2     3   ar
    11     3     4   ar
    12     4     8    1
    13     8     9   ar
    14     9    10   ar
    15    10    11   ar
    16    11    12   ar
    17    12    13   ar
    18    13    14   ar
    19    14    15   ar
    20    15    16   ar
    21     4     5   ar
    22     5     6    1
    23     5     7   ar
    24    19    20   am
    25    20    21    2
    26    20    22    1
    27    22    17    1
    28     7     1   ar
    29    16     8   ar
    30    15    11   ar
    31    27    28    1
@<TRIPOS>MOLECULE
*****
 28 31 0 0 0
SMALL
GASTEIGER

@<TRIPOS>ATOM
      1 C          62.3027   89.6442   10.9946 C.ar    1  UNL1        0.0593
      2 C          62.5767   88.9796   12.3111 C.ar    1  UNL1        0.0152
      3 C          63.5752   89.5757   13.2587 C.ar    1  UNL1        0.0035
      4 C          64.2996   90.8362   12.8898 C.ar    1  UNL1        0.0277
      5 C          64.0256   91.5008   11.5733 C.ar    1  UNL1        0.1413
      6 F          64.7501   92.7614   11.2043 F       1  UNL1       -0.2041
      7 C          63.0272   90.9048   10.6257 C.ar    1  UNL1        0.0446
      8 C          65.2981   91.4322   13.8374 C.ar    1  UNL1        0.0067
      9 C          64.8793   91.8129   15.2264 C.ar    1  UNL1        0.0192
     10 C          65.8778   92.4090   16.1740 C.ar    1  UNL1        0.0815
     11 N          67.2951   92.6243   15.7324 N.ar    1  UNL1       -0.2874
     12 C          68.4921   93.1874   16.4395 C.ar    1  UNL1        0.1022
     13 C          69.6507   93.1547   15.4873 C.ar    1  UNL1        0.1195
     14 N          69.1697   92.5713   14.1918 N.ar    1  UNL1       -0.2248
     15 C          67.7138   92.2435   14.3432 C.ar    1  UNL1        0.1479
     16 C          66.7153   91.6475   13.3957 C.ar    1  UNL1        0.0375
     17 C          59.7980   88.7508    8.1674 C.3     1  UNL1        0.2100
     18 C          60.7662   89.7006    8.8082 C.3     1  UNL1        0.1468
     19 N          61.3043   89.0483   10.0470 N.am    1  UNL1       -0.2212
     20 C          60.6687   87.6953   10.1720 C.2     1  UNL1        0.4088
     21 O          60.9199   86.7008   11.2664 O.2     1  UNL1       -0.2258
     22 O          59.7377   87.5115    9.0103 O.3     1  UNL1       -0.4345
     23 C          59.0256   88.9971    6.9053 C.3     1  UNL1        0.1352
     24 C          58.8881   92.0413    4.3630 C.3     1  UNL1        0.0946
     25 C          58.4483   90.9680    5.3140 C.2     1  UNL1        0.2231
     26 O          56.9914   90.7922    5.6249 O.2     1  UNL1       -0.2751
     27 N          59.4654   90.0704    5.9543 N.am    1  UNL1       -0.3011
     28 H          60.4216   90.1858    5.7503 H       1  UNL1        0.1495
@<TRIPOS>BOND
     1    24    25    1
     2    25    26    2
     3    25    27   am
     4    27    23    1
     5    17    23    1
     6    17    18    1
     7    18    19    1
     8    19     1    1
     9     1     2   ar
    10     2     3   ar
    11     3     4   ar
    12     4     8    1
    13     8     9   ar
    14     9    10   ar
    15    10    11   ar
    16    11    12   ar
    17    12    13   ar
    18    13    14   ar
    19    14    15   ar
    20    15    16   ar
    21     4     5   ar
    22     5     6    1
    23     5     7   ar
    24    19    20   am
    25    20    21    2
    26    20    22    1
    27    22    17    1
    28     7     1   ar
    29    16     8   ar
    30    15    11   ar
    31    27    28    1
@<TRIPOS>MOLECULE
*****
 28 31 0 0 0
SMALL
GASTEIGER

@<TRIPOS>ATOM
      1 C          64.2451   88.5597   14.1052 C.ar    1  UNL1        0.0593
      2 C          64.6602   87.5126   15.0958 C.ar    1  UNL1        0.0152
      3 C          64.3303   86.0708   14.8456 C.ar    1  UNL1        0.0035
      4 C          63.5853   85.6763   13.6050 C.ar    1  UNL1        0.0277
      5 C          63.1702   86.7234   12.6145 C.ar    1  UNL1        0.1413
      6 F          62.4252   86.3288   11.3738 F       1  UNL1       -0.2041
      7 C          63.5001   88.1651   12.8646 C.ar    1  UNL1        0.0446
      8 C          63.2554   84.2345   13.3549 C.ar    1  UNL1        0.0067
      9 C          62.6154   83.4133   14.4346 C.ar    1  UNL1        0.0192
     10 C          62.2854   81.9715   14.1844 C.ar    1  UNL1        0.0815
     11 N          62.5955   81.3511   12.8544 N.ar    1  UNL1       -0.2874
     12 C          62.3869   79.9649   12.3205 C.ar    1  UNL1        0.1022
     13 C          62.8980   79.9295   10.9107 C.ar    1  UNL1        0.1195
     14 N          63.4225   81.2938   10.5734 N.ar    1  UNL1       -0.2248
     15 C          63.2356   82.1723   11.7747 C.ar    1  UNL1        0.1479
     16 C          63.5655   83.6140   12.0249 C.ar    1  UNL1        0.0375
     17 C          65.5036   92.2314   14.1195 C.3     1  UNL1        0.2100
     18 C          65.4500   90.8672   13.4981 C.3     1  UNL1        0.1468
     19 N          64.5750   90.0014   14.3553 N.am    1  UNL1       -0.2212
     20 C          64.0879   90.8305   15.5066 C.2     1  UNL1        0.4088
     21 O          63.1853   90.3635   16.6098 O.2     1  UNL1       -0.2258
     22 O          64.6618   92.2087   15.3608 O.3     1  UNL1       -0.4345
     23 C          66.2653   93.4111   13.5923 C.3     1  UNL1        0.1352
     24 C          67.5485   92.9930    9.8601 C.3     1  UNL1        0.0946
     25 C          66.6267   93.1583   11.0319 C.2     1  UNL1        0.2231
     26 O          65.1444   93.2360   10.8150 O.2     1  UNL1       -0.2751
     27 N          67.1871   93.2459   12.4205 N.am    1  UNL1       -0.3011
     28 H          68.1599   93.1949   12.5629 H       1  UNL1        0.1495
@<TRIPOS>BOND
     1    24    25    1
     2    25    26    2
     3    25    27   am
     4    27    23    1
     5    17    23    1
     6    17    18    1
     7    18    19    1
     8    19     1    1
     9     1     2   ar
    10     2     3   ar
    11     3     4   ar
    12     4     8    1
    13     8     9   ar
    14     9    10   ar
    15    10    11   ar
    16    11    12   ar
    17    12    13   ar
    18    13    14   ar
    19    14    15   ar
    20    15    16   ar
    21     4     5   ar
    22     5     6    1
    23     5     7   ar
    24    19    20   am
    25    20    21    2
    26    20    22    1
    27    22    17    1
    28     7     1   ar
    29    16     8   ar
    30    15    11   ar
    31    27    28    1
@<TRIPOS>MOLECULE
*****
 28 31 0 0 0
SMALL
GASTEIGER

@<TRIPOS>ATOM
      1 C          64.2237   88.4932   14.1683 C.ar    1  UNL1        0.0593
      2 C          64.6785   87.3751   15.0588 C.ar    1  UNL1        0.0152
      3 C          64.4180   85.9508   14.6667 C.ar    1  UNL1        0.0035
      4 C          63.7027   85.6447   13.3844 C.ar    1  UNL1        0.0277
      5 C          63.2478   86.7628   12.4939 C.ar    1  UNL1        0.1413
      6 F          62.5324   86.4568   11.2115 F       1  UNL1       -0.2041
      7 C          63.5083   88.1871   12.8859 C.ar    1  UNL1        0.0446
      8 C          63.4422   84.2204   12.9923 C.ar    1  UNL1        0.0067
      9 C          63.7670   83.7531   11.6046 C.ar    1  UNL1        0.0192
     10 C          63.5064   82.3288   11.2125 C.ar    1  UNL1        0.0815
     11 N          62.9211   81.3720   12.2084 N.ar    1  UNL1       -0.2874
     12 C          62.5570   79.9201   12.1111 C.ar    1  UNL1        0.1022
     13 C          62.0072   79.4902   13.4388 C.ar    1  UNL1        0.1195
     14 N          62.0315   80.6763   14.3567 N.ar    1  UNL1       -0.2248
     15 C          62.5963   81.8393   13.5962 C.ar    1  UNL1        0.1479
     16 C          62.8568   83.2636   13.9882 C.ar    1  UNL1        0.0375
     17 C          65.3878   92.1694   14.6103 C.3     1  UNL1        0.2100
     18 C          65.4509   90.8521   13.8956 C.3     1  UNL1        0.1468
     19 N          64.4841   89.9175   14.5603 N.am    1  UNL1       -0.2212
     20 C          63.8236   90.6571   15.6857 C.2     1  UNL1        0.4088
     21 O          62.7866   90.1024   16.6168 O.2     1  UNL1       -0.2258
     22 O          64.3821   92.0489   15.7166 O.3     1  UNL1       -0.4345
     23 C          66.1897   93.3926   14.2771 C.3     1  UNL1        0.1352
     24 C          69.6784   93.8695   16.1078 C.3     1  UNL1        0.0946
     25 C          68.6366   93.3719   15.1502 C.2     1  UNL1        0.2231
     26 O          68.9999   92.3559   14.1081 O.2     1  UNL1       -0.2751
     27 N          67.2315   93.8902   15.2347 N.am    1  UNL1       -0.3011
     28 H          66.9931   94.5570   15.9187 H       1  UNL1        0.1495
@<TRIPOS>BOND
     1    24    25    1
     2    25    26    2
     3    25    27   am
     4    27    23    1
     5    17    23    1
     6    17    18    1
     7    18    19    1
     8    19     1    1
     9     1     2   ar
    10     2     3   ar
    11     3     4   ar
    12     4     8    1
    13     8     9   ar
    14     9    10   ar
    15    10    11   ar
    16    11    12   ar
    17    12    13   ar
    18    13    14   ar
    19    14    15   ar
    20    15    16   ar
    21     4     5   ar
    22     5     6    1
    23     5     7   ar
    24    19    20   am
    25    20    21    2
    26    20    22    1
    27    22    17    1
    28     7     1   ar
    29    16     8   ar
    30    15    11   ar
    31    27    28    1
@<TRIPOS>MOLECULE
*****
 28 31 0 0 0
SMALL
GASTEIGER

@<TRIPOS>ATOM
      1 C          64.4380   88.9308   14.2790 C.ar    1  UNL1        0.0593
      2 C          63.8317   89.3251   12.9649 C.ar    1  UNL1        0.0152
      3 C          64.2729   90.5867   12.2837 C.ar    1  UNL1        0.0035
      4 C          65.3204   91.4538   12.9166 C.ar    1  UNL1        0.0277
      5 C          65.9268   91.0595   14.2307 C.ar    1  UNL1        0.1413
      6 F          66.9743   91.9267   14.8637 F       1  UNL1       -0.2041
      7 C          65.4856   89.7981   14.9119 C.ar    1  UNL1        0.0446
      8 C          65.7616   92.7154   12.2355 C.ar    1  UNL1        0.0067
      9 C          65.9634   93.9683   13.0350 C.ar    1  UNL1        0.0192
     10 C          66.4047   95.2298   12.3539 C.ar    1  UNL1        0.0815
     11 N          66.6441   95.2383   10.8731 N.ar    1  UNL1       -0.2874
     12 C          67.0802   96.3229    9.9331 C.ar    1  UNL1        0.1022
     13 C          67.1478   95.7401    8.5526 C.ar    1  UNL1        0.1195
     14 N          66.7536   94.2955    8.6394 N.ar    1  UNL1       -0.2248
     15 C          66.4422   93.9853   10.0736 C.ar    1  UNL1        0.1479
     16 C          66.0010   92.7238   10.7547 C.ar    1  UNL1        0.0375
     17 C          63.6891   85.3228   15.4980 C.3     1  UNL1        0.2100
     18 C          64.3382   86.2720   14.5348 C.3     1  UNL1        0.1468
     19 N          63.9969   87.6694   14.9601 N.am    1  UNL1       -0.2212
     20 C          63.1370   87.5837   16.1862 C.2     1  UNL1        0.4088
     21 O          62.5673   88.7446   16.9464 O.2     1  UNL1       -0.2258
     22 O          62.9468   86.1335   16.5186 O.3     1  UNL1       -0.4345
     23 C          63.7686   83.8257   15.4492 C.3     1  UNL1        0.1352
     24 C          61.3075   81.0362   14.0665 C.3     1  UNL1        0.0946
     25 C          62.5502   81.8464   14.2881 C.2     1  UNL1        0.2231
     26 O          63.8175   81.4874   13.5702 O.2     1  UNL1       -0.2751
     27 N          62.5258   83.0155   15.2276 N.am    1  UNL1       -0.3011
     28 H          61.6941   83.2511   15.6987 H       1  UNL1        0.1495
@<TRIPOS>BOND
     1    24    25    1
     2    25    26    2
     3    25    27   am
     4    27    23    1
     5    17    23    1
     6    17    18    1
     7    18    19    1
     8    19     1    1
     9     1     2   ar
    10     2     3   ar
    11     3     4   ar
    12     4     8    1
    13     8     9   ar
    14     9    10   ar
    15    10    11   ar
    16    11    12   ar
    17    12    13   ar
    18    13    14   ar
    19    14    15   ar
    20    15    16   ar
    21     4     5   ar
    22     5     6    1
    23     5     7   ar
    24    19    20   am
    25    20    21    2
    26    20    22    1
    27    22    17    1
    28     7     1   ar
    29    16     8   ar
    30    15    11   ar
    31    27    28    1
@<TRIPOS>MOLECULE
*****
 28 31 0 0 0
SMALL
GASTEIGER

@<TRIPOS>ATOM
      1 C          62.4956   89.3771   11.2026 C.ar    1  UNL1        0.0593
      2 C          62.8830   88.7367   12.5025 C.ar    1  UNL1        0.0152
      3 C          63.8613   89.4188   13.4124 C.ar    1  UNL1        0.0035
      4 C          64.4522   90.7411   13.0223 C.ar    1  UNL1        0.0277
      5 C          64.0648   91.3814   11.7223 C.ar    1  UNL1        0.1413
      6 F          64.6557   92.7038   11.3321 F       1  UNL1       -0.2041
      7 C          63.0865   90.6994   10.8125 C.ar    1  UNL1        0.0446
      8 C          65.4305   91.4232   13.9321 C.ar    1  UNL1        0.0067
      9 C          64.9908   91.8987   15.2850 C.ar    1  UNL1        0.0192
     10 C          65.9691   92.5808   16.1948 C.ar    1  UNL1        0.0815
     11 N          67.3872   92.7873   15.7516 N.ar    1  UNL1       -0.2874
     12 C          68.5671   93.4221   16.4259 C.ar    1  UNL1        0.1022
     13 C          69.7361   93.3389   15.4896 C.ar    1  UNL1        0.1195
     14 N          69.2786   92.6527   14.2367 N.ar    1  UNL1       -0.2248
     15 C          67.8269   92.3117   14.3986 C.ar    1  UNL1        0.1479
     16 C          66.8486   91.6297   13.4889 C.ar    1  UNL1        0.0375
     17 C          60.4345   87.0260    8.9027 C.3     1  UNL1        0.2100
     18 C          61.6261   87.2917    9.7743 C.3     1  UNL1        0.1468
     19 N          61.5173   88.6951   10.2928 N.am    1  UNL1       -0.2212
     20 C          60.2586   89.2966    9.7417 C.2     1  UNL1        0.4088
     21 O          59.7571   90.6858   10.0037 O.2     1  UNL1       -0.2258
     22 O          59.5893   88.2651    8.8826 O.3     1  UNL1       -0.4345
     23 C          60.1398   85.7459    8.1784 C.3     1  UNL1        0.1352
     24 C          62.7684   84.6141    5.4290 C.3     1  UNL1        0.0946
     25 C          62.1410   84.8815    6.7650 C.2     1  UNL1        0.2231
     26 O          62.8876   84.5518    8.0236 O.2     1  UNL1       -0.2751
     27 N          60.7671   85.4785    6.8424 N.am    1  UNL1       -0.3011
     28 H          60.2771   85.6949    6.0164 H       1  UNL1        0.1495
@<TRIPOS>BOND
     1    24    25    1
     2    25    26    2
     3    25    27   am
     4    27    23    1
     5    17    23    1
     6    17    18    1
     7    18    19    1
     8    19     1    1
     9     1     2   ar
    10     2     3   ar
    11     3     4   ar
    12     4     8    1
    13     8     9   ar
    14     9    10   ar
    15    10    11   ar
    16    11    12   ar
    17    12    13   ar
    18    13    14   ar
    19    14    15   ar
    20    15    16   ar
    21     4     5   ar
    22     5     6    1
    23     5     7   ar
    24    19    20   am
    25    20    21    2
    26    20    22    1
    27    22    17    1
    28     7     1   ar
    29    16     8   ar
    30    15    11   ar
    31    27    28    1
@<TRIPOS>MOLECULE
*****
 28 31 0 0 0
SMALL
GASTEIGER

@<TRIPOS>ATOM
      1 C          63.9449   88.7495   13.1478 C.ar    1  UNL1        0.0593
      2 C          64.4334   87.9433   14.3146 C.ar    1  UNL1        0.0152
      3 C          64.1085   86.4816   14.4048 C.ar    1  UNL1        0.0035
      4 C          63.2952   85.8263   13.3284 C.ar    1  UNL1        0.0277
      5 C          62.8067   86.6325   12.1616 C.ar    1  UNL1        0.1413
      6 F          61.9933   85.9771   11.0850 F       1  UNL1       -0.2041
      7 C          63.1315   88.0941   12.0713 C.ar    1  UNL1        0.0446
      8 C          62.9703   84.3646   13.4186 C.ar    1  UNL1        0.0067
      9 C          62.3622   83.8074   14.6714 C.ar    1  UNL1        0.0192
     10 C          62.0373   82.3457   14.7616 C.ar    1  UNL1        0.0815
     11 N          62.3205   81.4414   13.5989 N.ar    1  UNL1       -0.2874
     12 C          62.1097   79.9700   13.3972 C.ar    1  UNL1        0.1022
     13 C          62.5876   79.6180   12.0196 C.ar    1  UNL1        0.1195
     14 N          63.0937   80.8717   11.3700 N.ar    1  UNL1       -0.2248
     15 C          62.9287   81.9986   12.3461 C.ar    1  UNL1        0.1479
     16 C          63.2535   83.4603   12.2559 C.ar    1  UNL1        0.0375
     17 C          65.2945   92.3763   13.4477 C.3     1  UNL1        0.2100
     18 C          65.3099   90.9343   13.8606 C.3     1  UNL1        0.1468
     19 N          64.2698   90.2111   13.0575 N.am    1  UNL1       -0.2212
     20 C          63.6115   91.2061   12.1483 C.2     1  UNL1        0.4088
     21 O          62.5128   90.9142   11.1697 O.2     1  UNL1       -0.2258
     22 O          64.2448   92.5442   12.3894 O.3     1  UNL1       -0.4345
     23 C          66.1743   93.4601   13.9967 C.3     1  UNL1        0.1352
     24 C          69.1479   92.4242   16.4123 C.3     1  UNL1        0.0946
     25 C          68.3559   92.6630   15.1610 C.2     1  UNL1        0.2231
     26 O          68.9534   92.3434   13.8227 O.2     1  UNL1       -0.2751
     27 N          66.9663   93.2213   15.2480 N.am    1  UNL1       -0.3011
     28 H          66.5742   93.4310   16.1263 H       1  UNL1        0.1495
@<TRIPOS>BOND
     1    24    25    1
     2    25    26    2
     3    25    27   am
     4    27    23    1
     5    17    23    1
     6    17    18    1
     7    18    19    1
     8    19     1    1
     9     1     2   ar
    10     2     3   ar
    11     3     4   ar
    12     4     8    1
    13     8     9   ar
    14     9    10   ar
    15    10    11   ar
    16    11    12   ar
    17    12    13   ar
    18    13    14   ar
    19    14    15   ar
    20    15    16   ar
    21     4     5   ar
    22     5     6    1
    23     5     7   ar
    24    19    20   am
    25    20    21    2
    26    20    22    1
    27    22    17    1
    28     7     1   ar
    29    16     8   ar
    30    15    11   ar
    31    27    28    1
@<TRIPOS>MOLECULE
*****
 28 31 0 0 0
SMALL
GASTEIGER

@<TRIPOS>ATOM
      1 C          63.9712   88.2495   13.6078 C.ar    1  UNL1        0.0593
      2 C          63.1898   87.8435   12.3935 C.ar    1  UNL1        0.0152
      3 C          62.9568   86.3904   12.1029 C.ar    1  UNL1        0.0035
      4 C          63.5053   85.3435   13.0264 C.ar    1  UNL1        0.0277
      5 C          64.2867   85.7495   14.2407 C.ar    1  UNL1        0.1413
      6 F          64.8353   84.7026   15.1643 F       1  UNL1       -0.2041
      7 C          64.5197   87.2025   14.5314 C.ar    1  UNL1        0.0446
      8 C          63.2724   83.8904   12.7358 C.ar    1  UNL1        0.0067
      9 C          63.6192   83.3300   11.3884 C.ar    1  UNL1        0.0192
     10 C          63.3863   81.8769   11.0978 C.ar    1  UNL1        0.0815
     11 N          62.8065   80.9843   12.1547 N.ar    1  UNL1       -0.2874
     12 C          62.4674   79.5232   12.1590 C.ar    1  UNL1        0.1022
     13 C          61.9110   79.1806   13.5092 C.ar    1  UNL1        0.1195
     14 N          61.9061   80.4299   14.3393 N.ar    1  UNL1       -0.2248
     15 C          62.4596   81.5448   13.5021 C.ar    1  UNL1        0.1479
     16 C          62.6925   82.9978   13.7927 C.ar    1  UNL1        0.0375
     17 C          64.7805   91.7642   15.0419 C.3     1  UNL1        0.2100
     18 C          64.6935   90.2746   15.1958 C.3     1  UNL1        0.1468
     19 N          64.2042   89.7025   13.8984 N.am    1  UNL1       -0.2212
     20 C          63.9887   90.8384   12.9428 C.2     1  UNL1        0.4088
     21 O          63.5024   90.7208   11.5287 O.2     1  UNL1       -0.2258
     22 O          64.3448   92.1126   13.6495 O.3     1  UNL1       -0.4345
     23 C          65.2250   92.7350   16.0956 C.3     1  UNL1        0.1352
     24 C          69.1021   93.5225   15.7831 C.3     1  UNL1        0.0946
     25 C          67.6473   93.4052   15.4372 C.2     1  UNL1        0.2231
     26 O          67.1598   93.8407   14.0871 O.2     1  UNL1       -0.2751
     27 N          66.6798   92.8523   16.4414 N.am    1  UNL1       -0.3011
     28 H          66.9997   92.5664   17.3275 H       1  UNL1        0.1495
@<TRIPOS>BOND
     1    24    25    1
     2    25    26    2
     3    25    27   am
     4    27    23    1
     5    17    23    1
     6    17    18    1
     7    18    19    1
     8    19     1    1
     9     1     2   ar
    10     2     3   ar
    11     3     4   ar
    12     4     8    1
    13     8     9   ar
    14     9    10   ar
    15    10    11   ar
    16    11    12   ar
    17    12    13   ar
    18    13    14   ar
    19    14    15   ar
    20    15    16   ar
    21     4     5   ar
    22     5     6    1
    23     5     7   ar
    24    19    20   am
    25    20    21    2
    26    20    22    1
    27    22    17    1
    28     7     1   ar
    29    16     8   ar
    30    15    11   ar
    31    27    28    1
