@<TRIPOS>MOLECULE
*****
 34 38 0 0 0
SMALL
GASTEIGER

@<TRIPOS>ATOM
      1 N          63.4435   88.8018   13.6253 N.3     1  UNL1       -0.2679
      2 C          62.9811   89.1263   12.2358 C.3     1  UNL1        0.0978
      3 C          63.0957   90.5284   11.7154 C.3     1  UNL1        0.0224
      4 C          62.6332   90.8528   10.3258 C.3     1  UNL1        0.0065
      5 C          62.0562   89.7751    9.4566 C.3     1  UNL1        0.0277
      6 C          61.9417   88.3729    9.9770 C.ar    1  UNL1       -0.0073
      7 C          61.3647   87.2952    9.1078 C.ar    1  UNL1       -0.0015
      8 C          61.2501   85.8930    9.6282 C.ar    1  UNL1        0.0203
      9 C          61.7126   85.5686   11.0177 C.ar    1  UNL1        0.0985
     10 N          62.2895   86.6463   11.8869 N.ar    1  UNL1       -0.2471
     11 C          62.4041   88.0485   11.3665 C.ar    1  UNL1        0.0695
     12 C          63.2331   89.7886   14.7354 C.3     1  UNL1        0.0886
     13 C          68.9597   93.4995   15.5633 C.ar    1  UNL1       -0.0003
     14 C          69.1559   92.5408   14.4265 C.ar    1  UNL1       -0.0003
     15 C          68.0498   91.6069   14.0336 C.ar    1  UNL1       -0.0045
     16 C          66.7475   91.6317   14.7774 C.ar    1  UNL1       -0.0234
     17 C          66.5513   92.5904   15.9142 C.ar    1  UNL1       -0.0103
     18 C          67.6574   93.5243   16.3072 C.ar    1  UNL1       -0.0032
     19 C          65.2489   92.6152   16.6581 C.3     1  UNL1        0.0953
     20 N          64.1429   91.6813   16.2652 N.3     1  UNL1       -0.2934
     21 C          64.3392   90.7225   15.1283 C.3     1  UNL1        0.0748
     22 C          65.6415   90.6977   14.3845 C.3     1  UNL1        0.0432
     23 H          63.3388   92.2614   16.0257 H       1  UNL1        0.1236
     24 C          64.1164   87.4907   13.9049 C.3     1  UNL1        0.0725
     25 C          64.1405   86.9428   15.3010 C.3     1  UNL1        0.0188
     26 C          64.2392   85.4627   15.5242 C.3     1  UNL1        0.0188
     27 C          63.0375   84.5904   15.3118 C.3     1  UNL1        0.0722
     28 N          63.0881   83.4750   14.3102 N.3     1  UNL1       -0.2703
     29 C          64.0656   83.5311   13.1739 C.3     1  UNL1        0.0894
     30 C          64.1162   82.4156   12.1723 C.3     1  UNL1        0.0862
     31 N          63.1893   81.2441   12.3070 N.3     1  UNL1       -0.2951
     32 C          62.2116   81.1879   13.4433 C.3     1  UNL1        0.0862
     33 C          62.1611   82.3034   14.4449 C.3     1  UNL1        0.0894
     34 H          63.7749   80.4122   12.3810 H       1  UNL1        0.1233
@<TRIPOS>BOND
     1    13    14   ar
     2    14    15   ar
     3    15    16   ar
     4    16    17   ar
     5    17    18   ar
     6    17    19    1
     7    19    20    1
     8    20    21    1
     9    21    12    1
    10    12     1    1
    11     1    24    1
    12    24    25    1
    13    25    26    1
    14    26    27    1
    15    27    28    1
    16    28    29    1
    17    29    30    1
    18    30    31    1
    19    31    32    1
    20    32    33    1
    21     2     1    1
    22     2     3    1
    23     3     4    1
    24     4     5    1
    25     5     6    1
    26     6     7   ar
    27     7     8   ar
    28     8     9   ar
    29     9    10   ar
    30    10    11   ar
    31    21    22    1
    32    18    13   ar
    33    33    28    1
    34    11     2    1
    35    22    16    1
    36    11     6   ar
    37    20    23    1
    38    31    34    1
@<TRIPOS>MOLECULE
*****
 34 38 0 0 0
SMALL
GASTEIGER

@<TRIPOS>ATOM
      1 N          63.2155   89.0720   13.0559 N.3     1  UNL1       -0.2679
      2 C          63.6135   87.6818   13.4548 C.3     1  UNL1        0.0978
      3 C          64.4658   87.4652   14.6699 C.3     1  UNL1        0.0224
      4 C          64.8638   86.0750   15.0688 C.3     1  UNL1        0.0065
      5 C          64.4095   84.9015   14.2524 C.3     1  UNL1        0.0277
      6 C          63.5571   85.1181   13.0373 C.ar    1  UNL1       -0.0073
      7 C          63.1028   83.9446   12.2210 C.ar    1  UNL1       -0.0015
      8 C          62.2505   84.1612   11.0058 C.ar    1  UNL1        0.0203
      9 C          61.8525   85.5514   10.6070 C.ar    1  UNL1        0.0985
     10 N          62.3068   86.7249   11.4233 N.ar    1  UNL1       -0.2471
     11 C          63.1591   86.5082   12.6384 C.ar    1  UNL1        0.0695
     12 C          62.9701   90.1128   14.1079 C.3     1  UNL1        0.0886
     13 C          68.8913   93.2224   15.6951 C.ar    1  UNL1       -0.0003
     14 C          69.0563   92.4840   14.4000 C.ar    1  UNL1       -0.0003
     15 C          67.9051   91.7144   13.8235 C.ar    1  UNL1       -0.0045
     16 C          66.5888   91.6832   14.5422 C.ar    1  UNL1       -0.0234
     17 C          66.4238   92.4217   15.8373 C.ar    1  UNL1       -0.0103
     18 C          67.5751   93.1913   16.4138 C.ar    1  UNL1       -0.0032
     19 C          65.1076   92.3905   16.5560 C.3     1  UNL1        0.0953
     20 N          63.9563   91.6209   15.9796 N.3     1  UNL1       -0.2934
     21 C          64.1214   90.8824   14.6843 C.3     1  UNL1        0.0748
     22 C          65.4376   90.9136   13.9657 C.3     1  UNL1        0.0432
     23 H          63.1955   92.2866   15.8441 H       1  UNL1        0.1236
     24 C          63.0628   89.4213   11.6052 C.3     1  UNL1        0.0725
     25 C          62.8667   90.8506   11.1945 C.3     1  UNL1        0.0188
     26 C          63.9802   91.5972   10.5217 C.3     1  UNL1        0.0188
     27 C          64.8820   92.4849   11.3272 C.3     1  UNL1        0.0722
     28 N          66.0088   93.2146   10.6580 N.3     1  UNL1       -0.2703
     29 C          65.9496   94.7053   10.5026 C.3     1  UNL1        0.0894
     30 C          67.0764   95.4350    9.8334 C.3     1  UNL1        0.0862
     31 N          68.2625   94.6740    9.3198 N.3     1  UNL1       -0.2951
     32 C          68.3218   93.1832    9.4752 C.3     1  UNL1        0.0862
     33 C          67.1950   92.4535   10.1443 C.3     1  UNL1        0.0894
     34 H          69.0828   95.0523    9.7935 H       1  UNL1        0.1233
@<TRIPOS>BOND
     1    13    14   ar
     2    14    15   ar
     3    15    16   ar
     4    16    17   ar
     5    17    18   ar
     6    17    19    1
     7    19    20    1
     8    20    21    1
     9    21    12    1
    10    12     1    1
    11     1    24    1
    12    24    25    1
    13    25    26    1
    14    26    27    1
    15    27    28    1
    16    28    29    1
    17    29    30    1
    18    30    31    1
    19    31    32    1
    20    32    33    1
    21     2     1    1
    22     2     3    1
    23     3     4    1
    24     4     5    1
    25     5     6    1
    26     6     7   ar
    27     7     8   ar
    28     8     9   ar
    29     9    10   ar
    30    10    11   ar
    31    21    22    1
    32    18    13   ar
    33    33    28    1
    34    11     2    1
    35    22    16    1
    36    11     6   ar
    37    20    23    1
    38    31    34    1
@<TRIPOS>MOLECULE
*****
 34 38 0 0 0
SMALL
GASTEIGER

@<TRIPOS>ATOM
      1 N          63.5302   88.8653   14.0330 N.3     1  UNL1       -0.2679
      2 C          63.3360   89.5608   12.7183 C.3     1  UNL1        0.0978
      3 C          64.0518   90.8489   12.4382 C.3     1  UNL1        0.0224
      4 C          63.8576   91.5444   11.1234 C.3     1  UNL1        0.0065
      5 C          62.9475   90.9518   10.0887 C.3     1  UNL1        0.0277
      6 C          62.2317   89.6637   10.3688 C.ar    1  UNL1       -0.0073
      7 C          61.3217   89.0711    9.3341 C.ar    1  UNL1       -0.0015
      8 C          60.6059   87.7830    9.6141 C.ar    1  UNL1        0.0203
      9 C          60.8001   87.0875   10.9288 C.ar    1  UNL1        0.0985
     10 N          61.7102   87.6801   11.9635 N.ar    1  UNL1       -0.2471
     11 C          62.4260   88.9682   11.6835 C.ar    1  UNL1        0.0695
     12 C          64.4197   87.6606   14.1200 C.3     1  UNL1        0.0886
     13 C          61.9549   81.2893   13.3577 C.ar    1  UNL1       -0.0003
     14 C          62.4966   81.7668   12.0430 C.ar    1  UNL1       -0.0003
     15 C          63.0979   83.1365   11.9325 C.ar    1  UNL1       -0.0045
     16 C          63.1575   84.0288   13.1367 C.ar    1  UNL1       -0.0234
     17 C          62.6159   83.5513   14.4515 C.ar    1  UNL1       -0.0103
     18 C          62.0146   82.1816   14.5620 C.ar    1  UNL1       -0.0032
     19 C          62.6755   84.4436   15.6558 C.3     1  UNL1        0.0953
     20 N          63.2768   85.8134   15.5453 N.3     1  UNL1       -0.2934
     21 C          63.8184   86.2908   14.2305 C.3     1  UNL1        0.0748
     22 C          63.7588   85.3986   13.0262 C.3     1  UNL1        0.0432
     23 H          64.0473   85.8514   16.2125 H       1  UNL1        0.1236
     24 C          62.8350   89.3745   15.2607 C.3     1  UNL1        0.0725
     25 C          63.5886   90.1990   16.2619 C.3     1  UNL1        0.0188
     26 C          63.9355   91.6247   15.9504 C.3     1  UNL1        0.0188
     27 C          65.1773   92.2376   16.5270 C.3     1  UNL1        0.0722
     28 N          66.4418   92.2696   15.7208 N.3     1  UNL1       -0.2703
     29 C          66.4309   91.8181   14.2905 C.3     1  UNL1        0.0894
     30 C          67.6955   91.8501   13.4843 C.3     1  UNL1        0.0862
     31 N          68.9708   92.3336   14.1084 N.3     1  UNL1       -0.2951
     32 C          68.9817   92.7851   15.5388 C.3     1  UNL1        0.0862
     33 C          67.7172   92.7532   16.3451 C.3     1  UNL1        0.0894
     34 H          69.2921   93.1230   13.5480 H       1  UNL1        0.1233
@<TRIPOS>BOND
     1    13    14   ar
     2    14    15   ar
     3    15    16   ar
     4    16    17   ar
     5    17    18   ar
     6    17    19    1
     7    19    20    1
     8    20    21    1
     9    21    12    1
    10    12     1    1
    11     1    24    1
    12    24    25    1
    13    25    26    1
    14    26    27    1
    15    27    28    1
    16    28    29    1
    17    29    30    1
    18    30    31    1
    19    31    32    1
    20    32    33    1
    21     2     1    1
    22     2     3    1
    23     3     4    1
    24     4     5    1
    25     5     6    1
    26     6     7   ar
    27     7     8   ar
    28     8     9   ar
    29     9    10   ar
    30    10    11   ar
    31    21    22    1
    32    18    13   ar
    33    33    28    1
    34    11     2    1
    35    22    16    1
    36    11     6   ar
    37    20    23    1
    38    31    34    1
@<TRIPOS>MOLECULE
*****
 34 38 0 0 0
SMALL
GASTEIGER

@<TRIPOS>ATOM
      1 N          63.7774   89.9826   13.6326 N.3     1  UNL1       -0.2679
      2 C          64.7096   91.1220   13.9199 C.3     1  UNL1        0.0978
      3 C          65.2206   91.3399   15.3132 C.3     1  UNL1        0.0224
      4 C          66.1529   92.4795   15.6005 C.3     1  UNL1        0.0065
      5 C          66.5741   93.4010   14.4945 C.3     1  UNL1        0.0277
      6 C          66.0630   93.1831   13.1012 C.ar    1  UNL1       -0.0073
      7 C          66.4842   94.1046   11.9951 C.ar    1  UNL1       -0.0015
      8 C          65.9732   93.8867   10.6018 C.ar    1  UNL1        0.0203
      9 C          65.0410   92.7473   10.3145 C.ar    1  UNL1        0.0985
     10 N          64.6198   91.8257   11.4205 N.ar    1  UNL1       -0.2471
     11 C          65.1308   92.0436   12.8139 C.ar    1  UNL1        0.0695
     12 C          62.3362   90.2538   13.3172 C.3     1  UNL1        0.0886
     13 C          60.3692   86.7074    7.7671 C.ar    1  UNL1       -0.0003
     14 C          61.4635   85.9571    8.4668 C.ar    1  UNL1       -0.0003
     15 C          62.0757   86.5164    9.7167 C.ar    1  UNL1       -0.0045
     16 C          61.5937   87.8259   10.2670 C.ar    1  UNL1       -0.0234
     17 C          60.4994   88.5761    9.5673 C.ar    1  UNL1       -0.0103
     18 C          59.8871   88.0169    8.3173 C.ar    1  UNL1       -0.0032
     19 C          60.0173   89.8857   10.1176 C.3     1  UNL1        0.0953
     20 N          60.6296   90.4449   11.3675 N.3     1  UNL1       -0.2934
     21 C          61.7239   89.6946   12.0672 C.3     1  UNL1        0.0748
     22 C          62.2060   88.3851   11.5169 C.3     1  UNL1        0.0432
     23 H          59.8723   90.5575   12.0415 H       1  UNL1        0.1236
     24 C          64.2863   88.5718   13.6607 C.3     1  UNL1        0.0725
     25 C          64.2551   87.7886   14.9396 C.3     1  UNL1        0.0188
     26 C          64.6622   86.3449   14.9451 C.3     1  UNL1        0.0188
     27 C          63.6801   85.2903   15.3614 C.3     1  UNL1        0.0722
     28 N          63.2341   84.2503   14.3768 N.3     1  UNL1       -0.2703
     29 C          62.6206   82.9710   14.8634 C.3     1  UNL1        0.0894
     30 C          62.1745   81.9309   13.8789 C.3     1  UNL1        0.0862
     31 N          62.3420   82.1703   12.4076 N.3     1  UNL1       -0.2951
     32 C          62.9555   83.4496   11.9209 C.3     1  UNL1        0.0862
     33 C          63.4016   84.4896   12.9055 C.3     1  UNL1        0.0894
     34 H          61.4122   82.1129   11.9922 H       1  UNL1        0.1233
@<TRIPOS>BOND
     1    13    14   ar
     2    14    15   ar
     3    15    16   ar
     4    16    17   ar
     5    17    18   ar
     6    17    19    1
     7    19    20    1
     8    20    21    1
     9    21    12    1
    10    12     1    1
    11     1    24    1
    12    24    25    1
    13    25    26    1
    14    26    27    1
    15    27    28    1
    16    28    29    1
    17    29    30    1
    18    30    31    1
    19    31    32    1
    20    32    33    1
    21     2     1    1
    22     2     3    1
    23     3     4    1
    24     4     5    1
    25     5     6    1
    26     6     7   ar
    27     7     8   ar
    28     8     9   ar
    29     9    10   ar
    30    10    11   ar
    31    21    22    1
    32    18    13   ar
    33    33    28    1
    34    11     2    1
    35    22    16    1
    36    11     6   ar
    37    20    23    1
    38    31    34    1
@<TRIPOS>MOLECULE
*****
 34 38 0 0 0
SMALL
GASTEIGER

@<TRIPOS>ATOM
      1 N          63.2767   89.8585   13.1309 N.3     1  UNL1       -0.2679
      2 C          64.0529   90.9686   12.4866 C.3     1  UNL1        0.0978
      3 C          63.8893   91.2462   11.0217 C.3     1  UNL1        0.0224
      4 C          64.6656   92.3563   10.3774 C.3     1  UNL1        0.0065
      5 C          65.6055   93.1887   11.1981 C.3     1  UNL1        0.0277
      6 C          65.7692   92.9111   12.6631 C.ar    1  UNL1       -0.0073
      7 C          66.7091   93.7436   13.4838 C.ar    1  UNL1       -0.0015
      8 C          66.8727   93.4660   14.9487 C.ar    1  UNL1        0.0203
      9 C          66.0964   92.3559   15.5930 C.ar    1  UNL1        0.0985
     10 N          65.1565   91.5235   14.7723 N.ar    1  UNL1       -0.2471
     11 C          64.9929   91.8011   13.3073 C.ar    1  UNL1        0.0695
     12 C          61.8246   89.6710   12.8046 C.3     1  UNL1        0.0886
     13 C          61.0910   85.6010    7.3139 C.ar    1  UNL1       -0.0003
     14 C          62.3579   85.2366    8.0296 C.ar    1  UNL1       -0.0003
     15 C          62.7580   85.9777    9.2708 C.ar    1  UNL1       -0.0045
     16 C          61.8912   87.0832    9.7964 C.ar    1  UNL1       -0.0234
     17 C          60.6243   87.4477    9.0808 C.ar    1  UNL1       -0.0103
     18 C          60.2243   86.7066    7.8396 C.ar    1  UNL1       -0.0032
     19 C          59.7575   88.5534    9.6064 C.3     1  UNL1        0.0953
     20 N          60.1576   89.2945   10.8477 N.3     1  UNL1       -0.2934
     21 C          61.4245   88.9299   11.5633 C.3     1  UNL1        0.0748
     22 C          62.2913   87.8243   11.0377 C.3     1  UNL1        0.0432
     23 H          59.3972   89.1788   11.5177 H       1  UNL1        0.1236
     24 C          63.9524   88.9359   14.1016 C.3     1  UNL1        0.0725
     25 C          63.8926   87.4519   13.8916 C.3     1  UNL1        0.0188
     26 C          64.6106   86.5316   14.8337 C.3     1  UNL1        0.0188
     27 C          63.8835   85.3739   15.4511 C.3     1  UNL1        0.0722
     28 N          63.6104   84.1415   14.6408 N.3     1  UNL1       -0.2703
     29 C          62.4174   83.2877   14.9531 C.3     1  UNL1        0.0894
     30 C          62.1443   82.0553   14.1428 C.3     1  UNL1        0.0862
     31 N          63.0642   81.6768   13.0202 N.3     1  UNL1       -0.2951
     32 C          64.2574   82.5306   12.7078 C.3     1  UNL1        0.0862
     33 C          64.5304   83.7630   13.5181 C.3     1  UNL1        0.0894
     34 H          62.4968   81.6426   12.1733 H       1  UNL1        0.1233
@<TRIPOS>BOND
     1    13    14   ar
     2    14    15   ar
     3    15    16   ar
     4    16    17   ar
     5    17    18   ar
     6    17    19    1
     7    19    20    1
     8    20    21    1
     9    21    12    1
    10    12     1    1
    11     1    24    1
    12    24    25    1
    13    25    26    1
    14    26    27    1
    15    27    28    1
    16    28    29    1
    17    29    30    1
    18    30    31    1
    19    31    32    1
    20    32    33    1
    21     2     1    1
    22     2     3    1
    23     3     4    1
    24     4     5    1
    25     5     6    1
    26     6     7   ar
    27     7     8   ar
    28     8     9   ar
    29     9    10   ar
    30    10    11   ar
    31    21    22    1
    32    18    13   ar
    33    33    28    1
    34    11     2    1
    35    22    16    1
    36    11     6   ar
    37    20    23    1
    38    31    34    1
@<TRIPOS>MOLECULE
*****
 34 38 0 0 0
SMALL
GASTEIGER

@<TRIPOS>ATOM
      1 N          61.4754   87.6568   11.1176 N.3     1  UNL1       -0.2679
      2 C          62.1506   86.4635   10.5095 C.3     1  UNL1        0.0978
      3 C          62.4294   86.4294    9.0360 C.3     1  UNL1        0.0224
      4 C          63.1047   85.2359    8.4279 C.3     1  UNL1        0.0065
      5 C          63.5011   84.0766    9.2932 C.3     1  UNL1        0.0277
      6 C          63.2223   84.1107   10.7667 C.ar    1  UNL1       -0.0073
      7 C          63.6188   82.9514   11.6320 C.ar    1  UNL1       -0.0015
      8 C          63.3400   82.9855   13.1055 C.ar    1  UNL1        0.0203
      9 C          62.6647   84.1789   13.7136 C.ar    1  UNL1        0.0985
     10 N          62.2683   85.3382   12.8483 N.ar    1  UNL1       -0.2471
     11 C          62.5471   85.3041   11.3748 C.ar    1  UNL1        0.0695
     12 C          62.1664   88.4429   12.1922 C.3     1  UNL1        0.0886
     13 C          66.2617   93.9477   11.7729 C.ar    1  UNL1       -0.0003
     14 C          66.3921   93.3416   13.1387 C.ar    1  UNL1       -0.0003
     15 C          65.5991   92.1195   13.4958 C.ar    1  UNL1       -0.0045
     16 C          64.6757   91.5034   12.4870 C.ar    1  UNL1       -0.0234
     17 C          64.5454   92.1094   11.1211 C.ar    1  UNL1       -0.0103
     18 C          65.3383   93.3316   10.7641 C.ar    1  UNL1       -0.0032
     19 C          63.6220   91.4933   10.1122 C.3     1  UNL1        0.0953
     20 N          62.8290   90.2712   10.4692 N.3     1  UNL1       -0.2934
     21 C          62.9594   89.6651   11.8352 C.3     1  UNL1        0.0748
     22 C          63.8827   90.2812   12.8440 C.3     1  UNL1        0.0432
     23 H          63.0875   89.5464    9.7996 H       1  UNL1        0.1236
     24 C          60.1092   88.0642   10.6513 C.3     1  UNL1        0.0725
     25 C          59.7159   87.8654    9.2175 C.3     1  UNL1        0.0188
     26 C          59.8034   89.0087    8.2504 C.3     1  UNL1        0.0188
     27 C          59.3528   88.8267    6.8312 C.3     1  UNL1        0.0722
     28 N          59.1250   90.0243    5.9572 N.3     1  UNL1       -0.2703
     29 C          60.2893   90.7095    5.3055 C.3     1  UNL1        0.0894
     30 C          60.0615   91.9071    4.4315 C.3     1  UNL1        0.0862
     31 N          58.6693   92.4195    4.2092 N.3     1  UNL1       -0.2951
     32 C          57.5049   91.7342    4.8609 C.3     1  UNL1        0.0862
     33 C          57.7328   90.5366    5.7349 C.3     1  UNL1        0.0894
     34 H          58.5023   92.3912    3.2034 H       1  UNL1        0.1233
@<TRIPOS>BOND
     1    13    14   ar
     2    14    15   ar
     3    15    16   ar
     4    16    17   ar
     5    17    18   ar
     6    17    19    1
     7    19    20    1
     8    20    21    1
     9    21    12    1
    10    12     1    1
    11     1    24    1
    12    24    25    1
    13    25    26    1
    14    26    27    1
    15    27    28    1
    16    28    29    1
    17    29    30    1
    18    30    31    1
    19    31    32    1
    20    32    33    1
    21     2     1    1
    22     2     3    1
    23     3     4    1
    24     4     5    1
    25     5     6    1
    26     6     7   ar
    27     7     8   ar
    28     8     9   ar
    29     9    10   ar
    30    10    11   ar
    31    21    22    1
    32    18    13   ar
    33    33    28    1
    34    11     2    1
    35    22    16    1
    36    11     6   ar
    37    20    23    1
    38    31    34    1
@<TRIPOS>MOLECULE
*****
 34 38 0 0 0
SMALL
GASTEIGER

@<TRIPOS>ATOM
      1 N          62.0041   87.7029   10.6353 N.3     1  UNL1       -0.2679
      2 C          62.6273   89.0389   10.9123 C.3     1  UNL1        0.0978
      3 C          62.5330   90.1362    9.8939 C.3     1  UNL1        0.0224
      4 C          63.1562   91.4722   10.1710 C.3     1  UNL1        0.0065
      5 C          63.8737   91.7109   11.4664 C.3     1  UNL1        0.0277
      6 C          63.9680   90.6136   12.4848 C.ar    1  UNL1       -0.0073
      7 C          64.6855   90.8524   13.7802 C.ar    1  UNL1       -0.0015
      8 C          64.7798   89.7551   14.7986 C.ar    1  UNL1        0.0203
      9 C          64.1567   88.4191   14.5216 C.ar    1  UNL1        0.0985
     10 N          63.4392   88.1804   13.2262 N.ar    1  UNL1       -0.2471
     11 C          63.3448   89.2777   12.2078 C.ar    1  UNL1        0.0695
     12 C          62.8717   86.4904   10.4701 C.3     1  UNL1        0.0886
     13 C          62.4931   80.4840   13.7911 C.ar    1  UNL1       -0.0003
     14 C          62.7550   80.2254   12.3370 C.ar    1  UNL1       -0.0003
     15 C          62.8831   81.3750   11.3820 C.ar    1  UNL1       -0.0045
     16 C          62.7493   82.7831   11.8811 C.ar    1  UNL1       -0.0234
     17 C          62.4874   83.0417   13.3352 C.ar    1  UNL1       -0.0103
     18 C          62.3593   81.8922   14.2902 C.ar    1  UNL1       -0.0032
     19 C          62.3536   84.4499   13.8343 C.3     1  UNL1        0.0953
     20 N          62.4817   85.5995   12.8793 N.3     1  UNL1       -0.2934
     21 C          62.7436   85.3408   11.4251 C.3     1  UNL1        0.0748
     22 C          62.8774   83.9327   10.9260 C.3     1  UNL1        0.0432
     23 H          63.2492   86.1796   13.2181 H       1  UNL1        0.1236
     24 C          60.5134   87.5794   10.5234 C.3     1  UNL1        0.0725
     25 C          59.8684   87.4793    9.1729 C.3     1  UNL1        0.0188
     26 C          59.7809   88.6901    8.2919 C.3     1  UNL1        0.0188
     27 C          58.9106   88.6674    7.0703 C.3     1  UNL1        0.0722
     28 N          58.8791   89.8514    6.1498 N.3     1  UNL1       -0.2703
     29 C          57.5666   90.4654    5.7622 C.3     1  UNL1        0.0894
     30 C          57.5352   91.6493    4.8417 C.3     1  UNL1        0.0862
     31 N          58.8162   92.2193    4.3089 N.3     1  UNL1       -0.2951
     32 C          60.1288   91.6053    4.6965 C.3     1  UNL1        0.0862
     33 C          60.1603   90.4214    5.6170 C.3     1  UNL1        0.0894
     34 H          58.8493   93.1953    4.6035 H       1  UNL1        0.1233
@<TRIPOS>BOND
     1    13    14   ar
     2    14    15   ar
     3    15    16   ar
     4    16    17   ar
     5    17    18   ar
     6    17    19    1
     7    19    20    1
     8    20    21    1
     9    21    12    1
    10    12     1    1
    11     1    24    1
    12    24    25    1
    13    25    26    1
    14    26    27    1
    15    27    28    1
    16    28    29    1
    17    29    30    1
    18    30    31    1
    19    31    32    1
    20    32    33    1
    21     2     1    1
    22     2     3    1
    23     3     4    1
    24     4     5    1
    25     5     6    1
    26     6     7   ar
    27     7     8   ar
    28     8     9   ar
    29     9    10   ar
    30    10    11   ar
    31    21    22    1
    32    18    13   ar
    33    33    28    1
    34    11     2    1
    35    22    16    1
    36    11     6   ar
    37    20    23    1
    38    31    34    1
@<TRIPOS>MOLECULE
*****
 34 38 0 0 0
SMALL
GASTEIGER

@<TRIPOS>ATOM
      1 N          62.5293   89.5410   12.7840 N.3     1  UNL1       -0.2679
      2 C          63.5414   90.3979   13.4849 C.3     1  UNL1        0.0978
      3 C          63.7365   90.2685   14.9665 C.3     1  UNL1        0.0224
      4 C          64.7487   91.1254   15.6674 C.3     1  UNL1        0.0065
      5 C          65.5658   92.1116   14.8867 C.3     1  UNL1        0.0277
      6 C          65.3708   92.2410   13.4050 C.ar    1  UNL1       -0.0073
      7 C          66.1879   93.2273   12.6243 C.ar    1  UNL1       -0.0015
      8 C          65.9928   93.3567   11.1427 C.ar    1  UNL1        0.0203
      9 C          64.9807   92.4998   10.4418 C.ar    1  UNL1        0.0985
     10 N          64.1636   91.5136   11.2225 N.ar    1  UNL1       -0.2471
     11 C          64.3586   91.3842   12.7042 C.ar    1  UNL1        0.0695
     12 C          62.9795   88.3776   11.9510 C.3     1  UNL1        0.0886
     13 C          63.4203   81.7656   13.7779 C.ar    1  UNL1       -0.0003
     14 C          62.7960   81.8585   12.4172 C.ar    1  UNL1       -0.0003
     15 C          62.5830   83.1994   11.7797 C.ar    1  UNL1       -0.0045
     16 C          62.9943   84.4475   12.5029 C.ar    1  UNL1       -0.0234
     17 C          63.6186   84.3547   13.8636 C.ar    1  UNL1       -0.0103
     18 C          63.8316   83.0137   14.5011 C.ar    1  UNL1       -0.0032
     19 C          64.0299   85.6028   14.5869 C.3     1  UNL1        0.0953
     20 N          63.8168   86.9438   13.9494 N.3     1  UNL1       -0.2934
     21 C          63.1925   87.0366   12.5886 C.3     1  UNL1        0.0748
     22 C          62.7812   85.7885   11.8654 C.3     1  UNL1        0.0432
     23 H          64.7329   87.3876   13.8839 H       1  UNL1        0.1236
     24 C          61.0669   89.8475   12.9161 C.3     1  UNL1        0.0725
     25 C          60.1139   89.4376   11.8327 C.3     1  UNL1        0.0188
     26 C          60.0743   90.1991   10.5410 C.3     1  UNL1        0.0188
     27 C          60.8438   89.7018    9.3533 C.3     1  UNL1        0.0722
     28 N          60.5147   88.3678    8.7514 N.3     1  UNL1       -0.2703
     29 C          61.4891   87.2330    8.8645 C.3     1  UNL1        0.0894
     30 C          61.1599   85.8991    8.2627 C.3     1  UNL1        0.0862
     31 N          59.8565   85.6999    7.5477 N.3     1  UNL1       -0.2951
     32 C          58.8820   86.8347    7.4345 C.3     1  UNL1        0.0862
     33 C          59.2112   88.1687    8.0364 C.3     1  UNL1        0.0894
     34 H          59.3708   84.9415    8.0266 H       1  UNL1        0.1233
@<TRIPOS>BOND
     1    13    14   ar
     2    14    15   ar
     3    15    16   ar
     4    16    17   ar
     5    17    18   ar
     6    17    19    1
     7    19    20    1
     8    20    21    1
     9    21    12    1
    10    12     1    1
    11     1    24    1
    12    24    25    1
    13    25    26    1
    14    26    27    1
    15    27    28    1
    16    28    29    1
    17    29    30    1
    18    30    31    1
    19    31    32    1
    20    32    33    1
    21     2     1    1
    22     2     3    1
    23     3     4    1
    24     4     5    1
    25     5     6    1
    26     6     7   ar
    27     7     8   ar
    28     8     9   ar
    29     9    10   ar
    30    10    11   ar
    31    21    22    1
    32    18    13   ar
    33    33    28    1
    34    11     2    1
    35    22    16    1
    36    11     6   ar
    37    20    23    1
    38    31    34    1
@<TRIPOS>MOLECULE
*****
 34 38 0 0 0
SMALL
GASTEIGER

@<TRIPOS>ATOM
      1 N          63.4098   88.1687   13.1644 N.3     1  UNL1       -0.2679
      2 C          62.7255   87.4079   12.0676 C.3     1  UNL1        0.0978
      3 C          62.9152   85.9244   11.9526 C.3     1  UNL1        0.0224
      4 C          62.2309   85.1636   10.8558 C.3     1  UNL1        0.0065
      5 C          61.3569   85.8863    9.8741 C.3     1  UNL1        0.0277
      6 C          61.1671   87.3698    9.9892 C.ar    1  UNL1       -0.0073
      7 C          60.2931   88.0925    9.0075 C.ar    1  UNL1       -0.0015
      8 C          60.1034   89.5760    9.1225 C.ar    1  UNL1        0.0203
      9 C          60.7877   90.3368   10.2192 C.ar    1  UNL1        0.0985
     10 N          61.6617   89.6141   11.2009 N.ar    1  UNL1       -0.2471
     11 C          61.8515   88.1306   11.0859 C.ar    1  UNL1        0.0695
     12 C          63.1387   89.6331   13.3435 C.3     1  UNL1        0.0886
     13 C          68.3884   93.3001   15.8422 C.ar    1  UNL1       -0.0003
     14 C          68.7925   92.6949   14.5306 C.ar    1  UNL1       -0.0003
     15 C          67.8234   91.8404   13.7686 C.ar    1  UNL1       -0.0045
     16 C          66.4502   91.5912   14.3181 C.ar    1  UNL1       -0.0234
     17 C          66.0460   92.1964   15.6297 C.ar    1  UNL1       -0.0103
     18 C          67.0151   93.0509   16.3918 C.ar    1  UNL1       -0.0032
     19 C          64.6727   91.9472   16.1793 C.3     1  UNL1        0.0953
     20 N          63.7036   91.0928   15.4172 N.3     1  UNL1       -0.2934
     21 C          64.1078   90.4875   14.1055 C.3     1  UNL1        0.0748
     22 C          65.4811   90.7368   13.5560 C.3     1  UNL1        0.0432
     23 H          62.8826   91.6699   15.2347 H       1  UNL1        0.1236
     24 C          64.3653   87.4651   14.0820 C.3     1  UNL1        0.0725
     25 C          63.9023   86.9937   15.4286 C.3     1  UNL1        0.0188
     26 C          63.7396   85.5264   15.6944 C.3     1  UNL1        0.0188
     27 C          64.4860   84.5262   14.8622 C.3     1  UNL1        0.0722
     28 N          63.7530   83.3800   14.2306 N.3     1  UNL1       -0.2703
     29 C          62.4978   82.8538   14.8611 C.3     1  UNL1        0.0894
     30 C          61.7648   81.7076   14.2295 C.3     1  UNL1        0.0862
     31 N          62.2870   81.0876   12.9674 N.3     1  UNL1       -0.2951
     32 C          63.5422   81.6137   12.3369 C.3     1  UNL1        0.0862
     33 C          64.2753   82.7599   12.9685 C.3     1  UNL1        0.0894
     34 H          61.5483   81.1739   12.2694 H       1  UNL1        0.1233
@<TRIPOS>BOND
     1    13    14   ar
     2    14    15   ar
     3    15    16   ar
     4    16    17   ar
     5    17    18   ar
     6    17    19    1
     7    19    20    1
     8    20    21    1
     9    21    12    1
    10    12     1    1
    11     1    24    1
    12    24    25    1
    13    25    26    1
    14    26    27    1
    15    27    28    1
    16    28    29    1
    17    29    30    1
    18    30    31    1
    19    31    32    1
    20    32    33    1
    21     2     1    1
    22     2     3    1
    23     3     4    1
    24     4     5    1
    25     5     6    1
    26     6     7   ar
    27     7     8   ar
    28     8     9   ar
    29     9    10   ar
    30    10    11   ar
    31    21    22    1
    32    18    13   ar
    33    33    28    1
    34    11     2    1
    35    22    16    1
    36    11     6   ar
    37    20    23    1
    38    31    34    1
