@<TRIPOS>MOLECULE
*****
 39 45 0 0 0
SMALL
GASTEIGER

@<TRIPOS>ATOM
      1 C          63.6926   84.5689   15.0587 C.2     1  UNL1        0.1040
      2 N          63.9136   83.4504   16.0334 N.2     1  UNL1       -0.1483
      3 N          63.8329   82.1561   15.2797 N.2     1  UNL1       -0.1520
      4 C          63.5621   82.4746   13.8391 C.2     1  UNL1        0.0864
      5 C          63.3833   81.5995   12.6341 C.3     1  UNL1        0.0738
      6 C          63.1178   82.2156   11.2925 C.2     1  UNL1       -0.0152
      7 C          63.0311   83.7068   11.1559 C.2     1  UNL1        0.0496
      8 C          63.2099   84.5820   12.3609 C.2     1  UNL1        0.0070
      9 C          63.4754   83.9659   13.7025 C.2     1  UNL1        0.0351
     10 C          63.6831   88.9625   16.0319 C.ar    1  UNL1        0.1384
     11 C          64.2899   88.4801   14.7477 C.ar    1  UNL1        0.0369
     12 C          64.2930   87.0156   14.4233 C.ar    1  UNL1        0.0047
     13 C          63.6894   86.0334   15.3831 C.ar    1  UNL1        0.0196
     14 C          63.0827   86.5158   16.6672 C.ar    1  UNL1        0.0047
     15 C          63.0796   87.9803   16.9917 C.ar    1  UNL1        0.0369
     16 O          63.6799   90.4270   16.3564 O.3     1  UNL1       -0.4791
     17 C          65.0446   91.8238   15.5488 C.3     1  UNL1        0.0896
     18 N          65.4338   92.2450   14.9950 N.3     1  UNL1       -0.2738
     19 C          66.4337   93.1835   15.6027 C.3     1  UNL1        0.0611
     20 C          67.1096   93.9259   14.4882 C.3     1  UNL1        0.0175
     21 C          66.5274   93.4461   13.1917 C.3     1  UNL1        0.0175
     22 C          65.4917   92.4073   13.5049 C.3     1  UNL1        0.0611
     23 C          64.5255   91.4161   14.1077 C.3     1  UNL1        0.0595
     24 C          64.5798   91.3634   15.6058 C.3     1  UNL1        0.1686
     25 C          65.5339   92.2471   16.3533 C.3     1  UNL1        0.0595
     26 C          62.7656   84.3229    9.8143 C.2     1  UNL1        0.2457
     27 O          63.7574   84.1537    8.7018 O.2     1  UNL1       -0.2701
     28 N          61.5083   85.1082    9.5851 N.am    1  UNL1       -0.2987
     29 H          60.8573   85.2192   10.3153 H       1  UNL1        0.1500
     30 C          61.2428   85.7242    8.2435 C.3     1  UNL1        0.0943
     31 C          60.6406   87.0951    8.1536 C.ar    1  UNL1       -0.0045
     32 C          59.6127   87.3954    7.1034 C.ar    1  UNL1       -0.0027
     33 C          59.0105   88.7663    7.0135 C.ar    1  UNL1       -0.0003
     34 C          59.4363   89.8369    7.9740 C.ar    1  UNL1       -0.0000
     35 C          60.4643   89.5366    9.0243 C.ar    1  UNL1       -0.0003
     36 C          61.0665   88.1658    9.1141 C.ar    1  UNL1       -0.0027
     37 C          61.5794   84.9695    6.9917 C.3     1  UNL1        0.0222
     38 C          62.5819   84.5495    5.9579 C.3     1  UNL1        0.0020
     39 C          61.1601   84.0821    5.8574 C.3     1  UNL1        0.0020
@<TRIPOS>BOND
     1    17    18    1
     2    18    19    1
     3    19    20    1
     4    20    21    1
     5    22    21    1
     6    22    23    1
     7    23    24    1
     8    24    16    1
     9    16    10    1
    10    10    11   ar
    11    11    12   ar
    12    12    13   ar
    13    13     1    1
    14     1     2    2
    15     2     3    1
    16     3     4    2
    17     4     5    1
    18     5     6    1
    19     6     7    2
    20     7    26    1
    21    26    27    2
    22    26    28   am
    23    28    30    1
    24    30    31    1
    25    31    32   ar
    26    32    33   ar
    27    33    34   ar
    28    34    35   ar
    29    35    36   ar
    30    30    37    1
    31    37    38    1
    32    38    39    1
    33     7     8    1
    34     8     9    2
    35    13    14   ar
    36    14    15   ar
    37    24    25    1
    38    22    18    1
    39    15    10   ar
    40    25    19    1
    41     9     1    1
    42     9     4    1
    43    36    31   ar
    44    39    37    1
    45    28    29    1
@<TRIPOS>MOLECULE
*****
 39 45 0 0 0
SMALL
GASTEIGER

@<TRIPOS>ATOM
      1 C          62.3640   88.2126   11.1391 C.2     1  UNL1        0.1040
      2 N          62.4646   86.9097   11.8754 N.2     1  UNL1       -0.1483
      3 N          61.5612   85.9229   11.1970 N.2     1  UNL1       -0.1520
      4 C          60.9024   86.6160   10.0413 C.2     1  UNL1        0.0864
      5 C          59.9148   86.1414    9.0170 C.3     1  UNL1        0.0738
      6 C          59.4233   87.0819    7.9568 C.2     1  UNL1       -0.0152
      7 C          59.9194   88.4970    7.9211 C.2     1  UNL1        0.0496
      8 C          60.9070   88.9716    8.9454 C.2     1  UNL1        0.0070
      9 C          61.3985   88.0311   10.0055 C.2     1  UNL1        0.0351
     10 C          64.5712   92.0010   12.1525 C.ar    1  UNL1        0.1384
     11 C          63.9913   91.8147   10.7818 C.ar    1  UNL1        0.0369
     12 C          63.2556   90.5519   10.4439 C.ar    1  UNL1        0.0047
     13 C          63.0997   89.4754   11.4769 C.ar    1  UNL1        0.0196
     14 C          63.6796   89.6618   12.8476 C.ar    1  UNL1        0.0047
     15 C          64.4153   90.9245   13.1854 C.ar    1  UNL1        0.0369
     16 O          65.3069   93.2637   12.4904 O.3     1  UNL1       -0.4791
     17 C          66.1432   94.6175   11.0998 C.3     1  UNL1        0.0896
     18 N          66.5335   94.8674   10.4512 N.3     1  UNL1       -0.2738
     19 C          66.5834   96.3642   10.3673 C.3     1  UNL1        0.0611
     20 C          67.3329   96.7338    9.1216 C.3     1  UNL1        0.0175
     21 C          67.7462   95.4655    8.4357 C.3     1  UNL1        0.0175
     22 C          67.2522   94.3119    9.2574 C.3     1  UNL1        0.0611
     23 C          66.6455   93.3665   10.2661 C.3     1  UNL1        0.0595
     24 C          65.9607   94.0645   11.4035 C.3     1  UNL1        0.1686
     25 C          65.9296   95.5634   11.4541 C.3     1  UNL1        0.0595
     26 C          59.4279   89.4375    6.8609 C.2     1  UNL1        0.2457
     27 O          57.9553   89.5974    6.6243 O.2     1  UNL1       -0.2701
     28 N          60.4089   90.2180    6.0373 N.am    1  UNL1       -0.2987
     29 H          61.3754   90.1130    6.1926 H       1  UNL1        0.1500
     30 C          59.9174   91.1585    4.9771 C.3     1  UNL1        0.0943
     31 C          60.8731   91.7066    3.9591 C.ar    1  UNL1       -0.0045
     32 C          62.2637   91.1530    3.8614 C.ar    1  UNL1       -0.0027
     33 C          63.2194   91.7010    2.8434 C.ar    1  UNL1       -0.0003
     34 C          62.7844   92.8028    1.9231 C.ar    1  UNL1       -0.0000
     35 C          61.3937   93.3565    2.0208 C.ar    1  UNL1       -0.0003
     36 C          60.4380   92.8084    3.0388 C.ar    1  UNL1       -0.0027
     37 C          58.4703   91.5509    4.9349 C.3     1  UNL1        0.0222
     38 C          57.0247   91.1717    4.8058 C.3     1  UNL1        0.0020
     39 C          57.4092   92.6096    4.9909 C.3     1  UNL1        0.0020
@<TRIPOS>BOND
     1    17    18    1
     2    18    19    1
     3    19    20    1
     4    20    21    1
     5    22    21    1
     6    22    23    1
     7    23    24    1
     8    24    16    1
     9    16    10    1
    10    10    11   ar
    11    11    12   ar
    12    12    13   ar
    13    13     1    1
    14     1     2    2
    15     2     3    1
    16     3     4    2
    17     4     5    1
    18     5     6    1
    19     6     7    2
    20     7    26    1
    21    26    27    2
    22    26    28   am
    23    28    30    1
    24    30    31    1
    25    31    32   ar
    26    32    33   ar
    27    33    34   ar
    28    34    35   ar
    29    35    36   ar
    30    30    37    1
    31    37    38    1
    32    38    39    1
    33     7     8    1
    34     8     9    2
    35    13    14   ar
    36    14    15   ar
    37    24    25    1
    38    22    18    1
    39    15    10   ar
    40    25    19    1
    41     9     1    1
    42     9     4    1
    43    36    31   ar
    44    39    37    1
    45    28    29    1
@<TRIPOS>MOLECULE
*****
 39 45 0 0 0
SMALL
GASTEIGER

@<TRIPOS>ATOM
      1 C          62.2271   88.0355   10.9309 C.2     1  UNL1        0.1040
      2 N          62.3346   86.6991   11.6036 N.2     1  UNL1       -0.1483
      3 N          61.4495   85.7374   10.8677 N.2     1  UNL1       -0.1520
      4 C          60.7949   86.4793    9.7403 C.2     1  UNL1        0.0864
      5 C          59.8234   86.0451    8.6832 C.3     1  UNL1        0.0738
      6 C          59.3325   87.0313    7.6651 C.2     1  UNL1       -0.0152
      7 C          59.8131   88.4516    7.7042 C.2     1  UNL1        0.0496
      8 C          60.7846   88.8859    8.7613 C.2     1  UNL1        0.0070
      9 C          61.2755   87.8997    9.7793 C.2     1  UNL1        0.0351
     10 C          64.3811   91.7928   12.1530 C.ar    1  UNL1        0.1384
     11 C          63.9088   91.6252   10.7392 C.ar    1  UNL1        0.0369
     12 C          63.1908   90.3728   10.3318 C.ar    1  UNL1        0.0047
     13 C          62.9451   89.2880   11.3383 C.ar    1  UNL1        0.0196
     14 C          63.4174   89.4557   12.7520 C.ar    1  UNL1        0.0047
     15 C          64.1354   90.7081   13.1594 C.ar    1  UNL1        0.0369
     16 O          65.0991   93.0453   12.5603 O.3     1  UNL1       -0.4791
     17 C          66.7220   93.1045   13.9125 C.3     1  UNL1        0.0896
     18 N          67.4387   92.9362   14.2184 N.3     1  UNL1       -0.2738
     19 C          67.6862   93.6666   15.5049 C.3     1  UNL1        0.0611
     20 C          69.0509   93.2866   15.9984 C.3     1  UNL1        0.0175
     21 C          69.6467   92.3215   15.0168 C.3     1  UNL1        0.0175
     22 C          68.6503   92.1049   13.9167 C.3     1  UNL1        0.0611
     23 C          67.4769   92.0806   12.9669 C.3     1  UNL1        0.0595
     24 C          66.3404   92.9594   13.3981 C.3     1  UNL1        0.1686
     25 C          66.4450   93.7524   14.6671 C.3     1  UNL1        0.0595
     26 C          59.3221   89.4378    6.6861 C.2     1  UNL1        0.2457
     27 O          57.8496   89.6102    6.4582 O.2     1  UNL1       -0.2701
     28 N          60.3037   90.2515    5.8959 N.am    1  UNL1       -0.2987
     29 H          61.2701   90.1384    6.0455 H       1  UNL1        0.1500
     30 C          59.8127   91.2377    4.8778 C.3     1  UNL1        0.0943
     31 C          60.7622   91.8053    3.8647 C.ar    1  UNL1       -0.0045
     32 C          60.3176   92.9158    2.9598 C.ar    1  UNL1       -0.0027
     33 C          61.2671   93.4834    1.9467 C.ar    1  UNL1       -0.0003
     34 C          62.6612   92.9405    1.8386 C.ar    1  UNL1       -0.0000
     35 C          63.1058   91.8300    2.7437 C.ar    1  UNL1       -0.0003
     36 C          62.1563   91.2624    3.7567 C.ar    1  UNL1       -0.0027
     37 C          58.3723   91.6562    4.8728 C.3     1  UNL1        0.0222
     38 C          57.3298   92.7256    5.0125 C.3     1  UNL1        0.0020
     39 C          56.9200   91.3118    4.7244 C.3     1  UNL1        0.0020
@<TRIPOS>BOND
     1    17    18    1
     2    18    19    1
     3    19    20    1
     4    20    21    1
     5    22    21    1
     6    22    23    1
     7    23    24    1
     8    24    16    1
     9    16    10    1
    10    10    11   ar
    11    11    12   ar
    12    12    13   ar
    13    13     1    1
    14     1     2    2
    15     2     3    1
    16     3     4    2
    17     4     5    1
    18     5     6    1
    19     6     7    2
    20     7    26    1
    21    26    27    2
    22    26    28   am
    23    28    30    1
    24    30    31    1
    25    31    32   ar
    26    32    33   ar
    27    33    34   ar
    28    34    35   ar
    29    35    36   ar
    30    30    37    1
    31    37    38    1
    32    38    39    1
    33     7     8    1
    34     8     9    2
    35    13    14   ar
    36    14    15   ar
    37    24    25    1
    38    22    18    1
    39    15    10   ar
    40    25    19    1
    41     9     1    1
    42     9     4    1
    43    36    31   ar
    44    39    37    1
    45    28    29    1
@<TRIPOS>MOLECULE
*****
 39 45 0 0 0
SMALL
GASTEIGER

@<TRIPOS>ATOM
      1 C          61.6067   92.9679    2.1746 C.2     1  UNL1        0.1040
      2 N          63.0301   93.4362    2.2428 N.2     1  UNL1       -0.1483
      3 N          63.3632   94.0979    0.9385 N.2     1  UNL1       -0.1520
      4 C          62.1458   94.0386    0.0643 C.2     1  UNL1        0.0864
      5 C          61.8855   94.5302   -1.3287 C.3     1  UNL1        0.0738
      6 C          60.5395   94.3235   -1.9577 C.2     1  UNL1       -0.0152
      7 C          59.4539   93.6252   -1.1937 C.2     1  UNL1        0.0496
      8 C          59.7142   93.1335    0.1993 C.2     1  UNL1        0.0070
      9 C          61.0601   93.3402    0.8283 C.2     1  UNL1        0.0351
     10 C          59.3688   90.8228    5.4366 C.ar    1  UNL1        0.1384
     11 C          58.6663   91.8435    4.5913 C.ar    1  UNL1        0.0369
     12 C          59.4122   92.5586    3.5040 C.ar    1  UNL1        0.0047
     13 C          60.8608   92.2529    3.2620 C.ar    1  UNL1        0.0196
     14 C          61.5632   91.2322    4.1073 C.ar    1  UNL1        0.0047
     15 C          60.8172   90.5172    5.1947 C.ar    1  UNL1        0.0369
     16 O          58.6229   90.1078    6.5240 O.3     1  UNL1       -0.4791
     17 C          59.5177   88.5459    7.6309 C.3     1  UNL1        0.0896
     18 N          59.9659   88.1953    8.1893 N.3     1  UNL1       -0.2738
     19 C          59.9057   86.6992    8.1005 C.3     1  UNL1        0.0611
     20 C          60.7753   86.1351    9.1848 C.3     1  UNL1        0.0175
     21 C          61.3729   87.2827    9.9437 C.3     1  UNL1        0.0175
     22 C          60.8727   88.5560    9.3284 C.3     1  UNL1        0.0611
     23 C          60.2207   89.6528    8.5215 C.3     1  UNL1        0.0595
     24 C          59.3430   89.1419    7.4175 C.3     1  UNL1        0.1686
     25 C          59.1855   87.6651    7.2070 C.3     1  UNL1        0.0595
     26 C          58.1079   93.4185   -1.8228 C.2     1  UNL1        0.2457
     27 O          57.1820   92.3680   -1.2849 O.2     1  UNL1       -0.2701
     28 N          57.6878   94.2622   -2.9896 N.am    1  UNL1       -0.2987
     29 H          58.2955   94.9517   -3.3426 H       1  UNL1        0.1500
     30 C          56.3418   94.0555   -3.6187 C.3     1  UNL1        0.0943
     31 C          55.1880   94.9297   -3.2256 C.ar    1  UNL1       -0.0045
     32 C          54.5286   95.8064   -4.2486 C.ar    1  UNL1       -0.0027
     33 C          53.3748   96.6806   -3.8554 C.ar    1  UNL1       -0.0003
     34 C          52.8805   96.6781   -2.4393 C.ar    1  UNL1       -0.0000
     35 C          53.5399   95.8014   -1.4162 C.ar    1  UNL1       -0.0003
     36 C          54.6936   94.9272   -1.8093 C.ar    1  UNL1       -0.0027
     37 C          56.1497   92.9747   -4.6408 C.3     1  UNL1        0.0222
     38 C          55.9878   91.5229   -4.9815 C.3     1  UNL1        0.0020
     39 C          55.9787   92.5543   -6.0705 C.3     1  UNL1        0.0020
@<TRIPOS>BOND
     1    17    18    1
     2    18    19    1
     3    19    20    1
     4    20    21    1
     5    22    21    1
     6    22    23    1
     7    23    24    1
     8    24    16    1
     9    16    10    1
    10    10    11   ar
    11    11    12   ar
    12    12    13   ar
    13    13     1    1
    14     1     2    2
    15     2     3    1
    16     3     4    2
    17     4     5    1
    18     5     6    1
    19     6     7    2
    20     7    26    1
    21    26    27    2
    22    26    28   am
    23    28    30    1
    24    30    31    1
    25    31    32   ar
    26    32    33   ar
    27    33    34   ar
    28    34    35   ar
    29    35    36   ar
    30    30    37    1
    31    37    38    1
    32    38    39    1
    33     7     8    1
    34     8     9    2
    35    13    14   ar
    36    14    15   ar
    37    24    25    1
    38    22    18    1
    39    15    10   ar
    40    25    19    1
    41     9     1    1
    42     9     4    1
    43    36    31   ar
    44    39    37    1
    45    28    29    1
@<TRIPOS>MOLECULE
*****
 39 45 0 0 0
SMALL
GASTEIGER

@<TRIPOS>ATOM
      1 C          61.5391   93.0475    2.3459 C.2     1  UNL1        0.1040
      2 N          62.9725   93.4845    2.4121 N.2     1  UNL1       -0.1483
      3 N          63.2893   94.2276    1.1483 N.2     1  UNL1       -0.1520
      4 C          62.0518   94.2499    0.3010 C.2     1  UNL1        0.0864
      5 C          61.7702   94.8402   -1.0489 C.3     1  UNL1        0.0738
      6 C          60.4068   94.7010   -1.6587 C.2     1  UNL1       -0.0152
      7 C          59.3251   93.9716   -0.9185 C.2     1  UNL1        0.0496
      8 C          59.6067   93.3814    0.4314 C.2     1  UNL1        0.0070
      9 C          60.9701   93.5206    1.0411 C.2     1  UNL1        0.0351
     10 C          59.3331   90.7249    5.5066 C.ar    1  UNL1        0.1384
     11 C          60.7776   90.4297    5.2300 C.ar    1  UNL1        0.0369
     12 C          61.5129   91.2039    4.1765 C.ar    1  UNL1        0.0047
     13 C          60.8037   92.2733    3.3994 C.ar    1  UNL1        0.0196
     14 C          59.3594   92.5684    3.6761 C.ar    1  UNL1        0.0047
     15 C          58.6241   91.7942    4.7296 C.ar    1  UNL1        0.0369
     16 O          58.5978   89.9508    6.5601 O.3     1  UNL1       -0.4791
     17 C          59.5390   88.4407    7.7002 C.3     1  UNL1        0.0896
     18 N          60.0000   88.1160    8.2637 N.3     1  UNL1       -0.2738
     19 C          59.9752   86.6170    8.2150 C.3     1  UNL1        0.0611
     20 C          60.8669   86.1030    9.3063 C.3     1  UNL1        0.0175
     21 C          61.4427   87.2844   10.0294 C.3     1  UNL1        0.0175
     22 C          60.9069   88.5285    9.3850 C.3     1  UNL1        0.0611
     23 C          60.2221   89.5875    8.5550 C.3     1  UNL1        0.0595
     24 C          59.3483   89.0265    7.4726 C.3     1  UNL1        0.1686
     25 C          59.2248   87.5413    7.3025 C.3     1  UNL1        0.0595
     26 C          57.9616   93.8325   -1.5283 C.2     1  UNL1        0.2457
     27 O          56.9781   92.8577   -0.9517 O.2     1  UNL1       -0.2701
     28 N          57.5818   94.6681   -2.7146 N.am    1  UNL1       -0.2987
     29 H          58.2274   95.3079   -3.0931 H       1  UNL1        0.1500
     30 C          56.2184   94.5290   -3.3244 C.3     1  UNL1        0.0943
     31 C          56.0385   93.7391   -4.5868 C.ar    1  UNL1       -0.0045
     32 C          55.7733   94.4463   -5.8828 C.ar    1  UNL1       -0.0027
     33 C          55.5934   93.6564   -7.1452 C.ar    1  UNL1       -0.0003
     34 C          55.6787   92.1592   -7.1116 C.ar    1  UNL1       -0.0000
     35 C          55.9439   91.4519   -5.8157 C.ar    1  UNL1       -0.0003
     36 C          56.1238   92.2418   -4.5533 C.ar    1  UNL1       -0.0027
     37 C          55.0350   95.1798   -2.6719 C.3     1  UNL1        0.0222
     38 C          54.0793   95.2811   -1.5202 C.3     1  UNL1        0.0020
     39 C          53.9409   96.2057   -2.6932 C.3     1  UNL1        0.0020
@<TRIPOS>BOND
     1    17    18    1
     2    18    19    1
     3    19    20    1
     4    20    21    1
     5    22    21    1
     6    22    23    1
     7    23    24    1
     8    24    16    1
     9    16    10    1
    10    10    11   ar
    11    11    12   ar
    12    12    13   ar
    13    13     1    1
    14     1     2    2
    15     2     3    1
    16     3     4    2
    17     4     5    1
    18     5     6    1
    19     6     7    2
    20     7    26    1
    21    26    27    2
    22    26    28   am
    23    28    30    1
    24    30    31    1
    25    31    32   ar
    26    32    33   ar
    27    33    34   ar
    28    34    35   ar
    29    35    36   ar
    30    30    37    1
    31    37    38    1
    32    38    39    1
    33     7     8    1
    34     8     9    2
    35    13    14   ar
    36    14    15   ar
    37    24    25    1
    38    22    18    1
    39    15    10   ar
    40    25    19    1
    41     9     1    1
    42     9     4    1
    43    36    31   ar
    44    39    37    1
    45    28    29    1
@<TRIPOS>MOLECULE
*****
 39 45 0 0 0
SMALL
GASTEIGER

@<TRIPOS>ATOM
      1 C          62.3411   93.0698    2.1173 C.2     1  UNL1        0.1040
      2 N          63.8112   93.3189    2.2807 N.2     1  UNL1       -0.1483
      3 N          64.3012   94.0246    1.0512 N.2     1  UNL1       -0.1520
      4 C          63.1340   94.2116    0.1278 C.2     1  UNL1        0.0864
      5 C          63.0178   94.8430   -1.2279 C.3     1  UNL1        0.0738
      6 C          61.6901   94.8842   -1.9246 C.2     1  UNL1       -0.0152
      7 C          60.4786   94.2940   -1.2657 C.2     1  UNL1        0.0496
      8 C          60.5949   93.6627    0.0899 C.2     1  UNL1        0.0070
      9 C          61.9226   93.6214    0.7867 C.2     1  UNL1        0.0351
     10 C          59.6574   91.0260    5.0957 C.ar    1  UNL1        0.1384
     11 C          59.1366   92.1715    4.2793 C.ar    1  UNL1        0.0369
     12 C          60.0311   92.8528    3.2865 C.ar    1  UNL1        0.0047
     13 C          61.4466   92.3885    3.1101 C.ar    1  UNL1        0.0196
     14 C          61.9673   91.2430    3.9265 C.ar    1  UNL1        0.0047
     15 C          61.0728   90.5617    4.9193 C.ar    1  UNL1        0.0369
     16 O          58.7629   90.3447    6.0885 O.3     1  UNL1       -0.4791
     17 C          59.6455   89.1273    7.5732 C.3     1  UNL1        0.0896
     18 N          59.8740   88.4606    7.9459 N.3     1  UNL1       -0.2738
     19 C          60.6066   88.7532    9.2217 C.3     1  UNL1        0.0611
     20 C          60.9926   87.4445    9.8451 C.3     1  UNL1        0.0175
     21 C          60.4984   86.3432    8.9546 C.3     1  UNL1        0.0175
     22 C          59.8071   86.9712    7.7808 C.3     1  UNL1        0.0611
     23 C          59.1844   87.8638    6.7344 C.3     1  UNL1        0.0595
     24 C          59.3292   89.3266    7.0333 C.3     1  UNL1        0.1686
     25 C          60.0403   89.7713    8.2769 C.3     1  UNL1        0.0595
     26 C          59.1509   94.3353   -1.9625 C.2     1  UNL1        0.2457
     27 O          59.0648   94.8025   -3.3853 O.2     1  UNL1       -0.2701
     28 N          57.9094   93.9093   -1.2366 N.am    1  UNL1       -0.2987
     29 H          57.9659   93.6027   -0.3028 H       1  UNL1        0.1500
     30 C          56.5816   93.9506   -1.9334 C.3     1  UNL1        0.0943
     31 C          56.2274   92.8922   -2.9357 C.ar    1  UNL1       -0.0045
     32 C          55.9275   91.4958   -2.4775 C.ar    1  UNL1       -0.0027
     33 C          55.5733   90.4375   -3.4798 C.ar    1  UNL1       -0.0003
     34 C          55.5191   90.7756   -4.9401 C.ar    1  UNL1       -0.0000
     35 C          55.8190   92.1721   -5.3983 C.ar    1  UNL1       -0.0003
     36 C          56.1732   93.2304   -4.3961 C.ar    1  UNL1       -0.0027
     37 C          55.6081   95.0501   -1.6280 C.3     1  UNL1        0.0222
     38 C          55.3349   96.4605   -1.1966 C.3     1  UNL1        0.0020
     39 C          54.1953   95.5442   -1.5303 C.3     1  UNL1        0.0020
@<TRIPOS>BOND
     1    17    18    1
     2    18    19    1
     3    19    20    1
     4    20    21    1
     5    22    21    1
     6    22    23    1
     7    23    24    1
     8    24    16    1
     9    16    10    1
    10    10    11   ar
    11    11    12   ar
    12    12    13   ar
    13    13     1    1
    14     1     2    2
    15     2     3    1
    16     3     4    2
    17     4     5    1
    18     5     6    1
    19     6     7    2
    20     7    26    1
    21    26    27    2
    22    26    28   am
    23    28    30    1
    24    30    31    1
    25    31    32   ar
    26    32    33   ar
    27    33    34   ar
    28    34    35   ar
    29    35    36   ar
    30    30    37    1
    31    37    38    1
    32    38    39    1
    33     7     8    1
    34     8     9    2
    35    13    14   ar
    36    14    15   ar
    37    24    25    1
    38    22    18    1
    39    15    10   ar
    40    25    19    1
    41     9     1    1
    42     9     4    1
    43    36    31   ar
    44    39    37    1
    45    28    29    1
@<TRIPOS>MOLECULE
*****
 39 45 0 0 0
SMALL
GASTEIGER

@<TRIPOS>ATOM
      1 C          61.6924   89.4943   10.3801 C.2     1  UNL1        0.1040
      2 N          60.8169   90.2163    9.3991 N.2     1  UNL1       -0.1483
      3 N          60.2949   89.2106    8.4162 N.2     1  UNL1       -0.1520
      4 C          60.8477   87.8672    8.7897 C.2     1  UNL1        0.0864
      5 C          60.6762   86.5068    8.1813 C.3     1  UNL1        0.0738
      6 C          61.3685   85.3219    8.7868 C.2     1  UNL1       -0.0152
      7 C          62.2322   85.4972   10.0005 C.2     1  UNL1        0.0496
      8 C          62.4037   86.8575   10.6089 C.2     1  UNL1        0.0070
      9 C          61.7115   88.0425   10.0034 C.2     1  UNL1        0.0351
     10 C          63.8781   91.3568   13.8448 C.ar    1  UNL1        0.1384
     11 C          62.9430   90.2075   14.0784 C.ar    1  UNL1        0.0369
     12 C          62.2145   89.5866   12.9236 C.ar    1  UNL1        0.0047
     13 C          62.4210   90.1152   11.5350 C.ar    1  UNL1        0.0196
     14 C          63.3560   91.2645   11.3014 C.ar    1  UNL1        0.0047
     15 C          64.0845   91.8854   12.4563 C.ar    1  UNL1        0.0369
     16 O          64.6066   91.9777   14.9997 O.3     1  UNL1       -0.4791
     17 C          66.6762   92.3767   15.1529 C.3     1  UNL1        0.0896
     18 N          67.4454   92.3933   14.9443 N.3     1  UNL1       -0.2738
     19 C          68.2977   93.0460   15.9920 C.3     1  UNL1        0.0611
     20 C          69.7183   93.0289   15.5105 C.3     1  UNL1        0.0175
     21 C          69.7439   92.3657   14.1654 C.3     1  UNL1        0.0175
     22 C          68.3392   91.9729   13.8154 C.3     1  UNL1        0.0611
     23 C          66.8568   91.6997   13.7311 C.3     1  UNL1        0.0595
     24 C          66.0920   92.1752   14.9306 C.3     1  UNL1        0.1686
     25 C          66.8124   92.8484   16.0611 C.3     1  UNL1        0.0595
     26 C          62.9245   84.3122   10.6060 C.2     1  UNL1        0.2457
     27 O          64.1876   83.7865    9.9909 O.2     1  UNL1       -0.2701
     28 N          62.3537   83.6528   11.8264 N.am    1  UNL1       -0.2987
     29 H          61.5247   83.9979   12.2300 H       1  UNL1        0.1500
     30 C          63.0459   82.4678   12.4318 C.3     1  UNL1        0.0943
     31 C          62.9181   81.1170   11.7922 C.ar    1  UNL1       -0.0045
     32 C          62.5786   79.9198   12.6295 C.ar    1  UNL1       -0.0027
     33 C          62.4507   78.5690   11.9899 C.ar    1  UNL1       -0.0003
     34 C          62.6625   78.4155   10.5129 C.ar    1  UNL1       -0.0000
     35 C          63.0021   79.6128    9.6754 C.ar    1  UNL1       -0.0003
     36 C          63.1299   80.9636   10.3151 C.ar    1  UNL1       -0.0027
     37 C          63.8660   82.6335   13.6768 C.3     1  UNL1        0.0222
     38 C          64.7746   83.4653   14.5326 C.3     1  UNL1        0.0020
     39 C          64.3777   82.0888   14.9773 C.3     1  UNL1        0.0020
@<TRIPOS>BOND
     1    17    18    1
     2    18    19    1
     3    19    20    1
     4    20    21    1
     5    22    21    1
     6    22    23    1
     7    23    24    1
     8    24    16    1
     9    16    10    1
    10    10    11   ar
    11    11    12   ar
    12    12    13   ar
    13    13     1    1
    14     1     2    2
    15     2     3    1
    16     3     4    2
    17     4     5    1
    18     5     6    1
    19     6     7    2
    20     7    26    1
    21    26    27    2
    22    26    28   am
    23    28    30    1
    24    30    31    1
    25    31    32   ar
    26    32    33   ar
    27    33    34   ar
    28    34    35   ar
    29    35    36   ar
    30    30    37    1
    31    37    38    1
    32    38    39    1
    33     7     8    1
    34     8     9    2
    35    13    14   ar
    36    14    15   ar
    37    24    25    1
    38    22    18    1
    39    15    10   ar
    40    25    19    1
    41     9     1    1
    42     9     4    1
    43    36    31   ar
    44    39    37    1
    45    28    29    1
