@<TRIPOS>MOLECULE
*****
 34 37 0 0 0
SMALL
GASTEIGER

@<TRIPOS>ATOM
      1 C          63.4405   85.1105   13.4890 C.ar    1  UNL1        0.0053
      2 C          64.2510   85.6812   14.6148 C.ar    1  UNL1        0.0033
      3 C          64.5375   87.1529   14.6617 C.ar    1  UNL1        0.0382
      4 C          64.0136   88.0538   13.5829 C.ar    1  UNL1        0.1524
      5 C          63.2031   87.4830   12.4571 C.ar    1  UNL1        0.0881
      6 C          62.9166   86.0115   12.4101 C.ar    1  UNL1        0.0181
      7 N          62.6792   88.3840   11.3782 N.am    1  UNL1       -0.2514
      8 C          62.9658   89.8556   11.4252 C.2     1  UNL1        0.2657
      9 O          62.4419   90.7564   10.3463 O.2     1  UNL1       -0.2708
     10 C          63.7763   90.4263   12.5510 C.3     1  UNL1        0.2012
     11 C          64.4096   91.6055   13.2280 C.3     1  UNL1        0.0532
     12 C          63.6392   91.7961   11.9552 C.3     1  UNL1        0.0532
     13 O          64.3002   89.5255   13.6298 O.3     1  UNL1       -0.4727
     14 C          63.6302   82.8188   12.2799 C.ar    1  UNL1        0.0645
     15 N          63.3437   81.3472   12.2330 N.ar    1  UNL1       -0.2183
     16 C          62.5808   80.6957   13.3482 C.ar    1  UNL1        0.2145
     17 N          62.2942   79.2241   13.3012 N.pl3   1  UNL1       -0.3274
     18 N          62.1045   81.5158   14.5103 N.ar    1  UNL1       -0.1995
     19 C          62.3911   82.9875   14.5572 C.ar    1  UNL1        0.1293
     20 N          61.9148   83.8076   15.7193 N.pl3   1  UNL1       -0.3425
     21 C          63.1539   83.6389   13.4420 C.ar    1  UNL1        0.0449
     22 H          62.6068   78.6858   12.5385 H       1  UNL1        0.1452
     23 H          61.7935   78.7965   14.0331 H       1  UNL1        0.1452
     24 H          61.4141   83.3800   16.4512 H       1  UNL1        0.1437
     25 H          62.1029   84.7735   15.7501 H       1  UNL1        0.1437
     26 C          63.8042   83.5270    9.7863 C.3     1  UNL1        0.0067
     27 C          64.3931   83.4702   11.1648 C.3     1  UNL1        0.0460
     28 C          61.8688   87.8133   10.2524 C.3     1  UNL1        0.1196
     29 C          60.4940   88.3447    9.9734 C.3     1  UNL1        0.1113
     30 N          60.2597   89.2331    8.7878 N.am    1  UNL1       -0.3026
     31 C          59.5156   88.7108    7.5946 C.2     1  UNL1        0.2230
     32 C          59.2813   89.5993    6.4089 C.3     1  UNL1        0.0946
     33 O          59.0057   87.3002    7.5872 O.2     1  UNL1       -0.2751
     34 H          60.5944   90.1590    8.7926 H       1  UNL1        0.1495
@<TRIPOS>BOND
     1    26    27    1
     2    27    14    1
     3    14    15   ar
     4    15    16   ar
     5    16    17    1
     6    16    18   ar
     7    18    19   ar
     8    19    20    1
     9    19    21   ar
    10    21     1    1
    11     1     2   ar
    12     2     3   ar
    13     3     4   ar
    14     4     5   ar
    15     5     6   ar
    16     5     7    1
    17     7    28    1
    18    28    29    1
    19    29    30    1
    20    30    31   am
    21    31    32    1
    22    31    33    2
    23     7     8   am
    24     8     9    2
    25     8    10    1
    26    10    11    1
    27    11    12    1
    28    10    13    1
    29    21    14   ar
    30     6     1   ar
    31    12    10    1
    32    13     4    1
    33    17    22    1
    34    17    23    1
    35    20    24    1
    36    20    25    1
    37    30    34    1
@<TRIPOS>MOLECULE
*****
 34 37 0 0 0
SMALL
GASTEIGER

@<TRIPOS>ATOM
      1 C          63.0025   89.0445   12.0902 C.ar    1  UNL1        0.0053
      2 C          63.2943   88.3878   13.4068 C.ar    1  UNL1        0.0033
      3 C          64.2118   89.0530   14.3897 C.ar    1  UNL1        0.0382
      4 C          64.8373   90.3748   14.0558 C.ar    1  UNL1        0.1524
      5 C          64.5454   91.0315   12.7392 C.ar    1  UNL1        0.0881
      6 C          63.6280   90.3664   11.7564 C.ar    1  UNL1        0.0181
      7 N          65.1709   92.3534   12.4054 N.am    1  UNL1       -0.2514
      8 C          66.0883   93.0185   13.3883 C.2     1  UNL1        0.2657
      9 O          66.7138   94.3404   13.0544 O.2     1  UNL1       -0.2708
     10 C          66.3802   92.3618   14.7049 C.3     1  UNL1        0.2012
     11 C          67.0784   92.3667   16.0325 C.3     1  UNL1        0.0532
     12 C          67.2710   93.5090   15.0796 C.3     1  UNL1        0.0532
     13 O          65.7547   91.0400   15.0387 O.3     1  UNL1       -0.4727
     14 C          62.0240   86.8825   11.0327 C.ar    1  UNL1        0.0645
     15 N          61.1067   86.2174   10.0498 N.ar    1  UNL1       -0.2183
     16 C          60.2503   87.0492    9.1416 C.ar    1  UNL1        0.2145
     17 N          59.3329   86.3840    8.1588 N.pl3   1  UNL1       -0.3274
     18 N          60.3113   88.5460    9.2163 N.ar    1  UNL1       -0.1995
     19 C          61.2287   89.2112   10.1992 C.ar    1  UNL1        0.1293
     20 N          61.2898   90.7081   10.2739 N.pl3   1  UNL1       -0.3425
     21 C          62.0851   88.3794   11.1073 C.ar    1  UNL1        0.0449
     22 H          59.2928   85.4016    8.1098 H       1  UNL1        0.1452
     23 H          58.7708   86.9300    7.5627 H       1  UNL1        0.1452
     24 H          60.7277   91.2540    9.6778 H       1  UNL1        0.1437
     25 H          61.8919   91.1446   10.9190 H       1  UNL1        0.1437
     26 C          62.8192   84.5538   11.8663 C.3     1  UNL1        0.0067
     27 C          62.8804   86.0507   11.9408 C.3     1  UNL1        0.0460
     28 C          64.8791   93.0101   11.0888 C.3     1  UNL1        0.1196
     29 C          65.9800   93.2092   10.0896 C.3     1  UNL1        0.1113
     30 N          66.1217   94.5241    9.3818 N.am    1  UNL1       -0.3026
     31 C          67.4854   95.0568    9.0549 C.2     1  UNL1        0.2230
     32 C          67.6271   96.3717    8.3471 C.3     1  UNL1        0.0946
     33 O          68.7072   94.2745    9.4357 O.2     1  UNL1       -0.2751
     34 H          65.3197   95.0376    9.1318 H       1  UNL1        0.1495
@<TRIPOS>BOND
     1    26    27    1
     2    27    14    1
     3    14    15   ar
     4    15    16   ar
     5    16    17    1
     6    16    18   ar
     7    18    19   ar
     8    19    20    1
     9    19    21   ar
    10    21     1    1
    11     1     2   ar
    12     2     3   ar
    13     3     4   ar
    14     4     5   ar
    15     5     6   ar
    16     5     7    1
    17     7    28    1
    18    28    29    1
    19    29    30    1
    20    30    31   am
    21    31    32    1
    22    31    33    2
    23     7     8   am
    24     8     9    2
    25     8    10    1
    26    10    11    1
    27    11    12    1
    28    10    13    1
    29    21    14   ar
    30     6     1   ar
    31    12    10    1
    32    13     4    1
    33    17    22    1
    34    17    23    1
    35    20    24    1
    36    20    25    1
    37    30    34    1
@<TRIPOS>MOLECULE
*****
 34 37 0 0 0
SMALL
GASTEIGER

@<TRIPOS>ATOM
      1 C          63.5513   84.8911   13.6490 C.ar    1  UNL1        0.0053
      2 C          64.3598   85.3937   14.8082 C.ar    1  UNL1        0.0033
      3 C          64.6716   86.8561   14.9272 C.ar    1  UNL1        0.0382
      4 C          64.1751   87.8159   13.8870 C.ar    1  UNL1        0.1524
      5 C          63.3666   87.3134   12.7278 C.ar    1  UNL1        0.0881
      6 C          63.0547   85.8511   12.6087 C.ar    1  UNL1        0.0181
      7 N          62.8700   88.2733   11.6875 N.am    1  UNL1       -0.2514
      8 C          63.1819   89.7357   11.8065 C.2     1  UNL1        0.2657
      9 O          62.6853   90.6955   10.7663 O.2     1  UNL1       -0.2708
     10 C          63.9904   90.2382   12.9658 C.3     1  UNL1        0.2012
     11 C          64.6372   91.3726   13.7037 C.3     1  UNL1        0.0532
     12 C          63.8837   91.6367   12.4339 C.3     1  UNL1        0.0532
     13 O          64.4869   89.2784   14.0060 O.3     1  UNL1       -0.4727
     14 C          63.6990   82.6594   12.3272 C.ar    1  UNL1        0.0645
     15 N          63.3871   81.1970   12.2081 N.ar    1  UNL1       -0.2183
     16 C          62.6156   80.5040   13.2920 C.ar    1  UNL1        0.2145
     17 N          62.3037   79.0417   13.1730 N.pl3   1  UNL1       -0.3274
     18 N          62.1561   81.2734   14.4948 N.ar    1  UNL1       -0.1995
     19 C          62.4680   82.7359   14.6138 C.ar    1  UNL1        0.1293
     20 N          62.0084   83.5053   15.8166 N.pl3   1  UNL1       -0.3425
     21 C          63.2394   83.4288   13.5300 C.ar    1  UNL1        0.0449
     22 H          62.6053   78.5367   12.3835 H       1  UNL1        0.1452
     23 H          61.7974   78.5868   13.8843 H       1  UNL1        0.1452
     24 H          61.5021   83.0505   16.5280 H       1  UNL1        0.1437
     25 H          62.2132   84.4651   15.8947 H       1  UNL1        0.1437
     26 C          63.9190   83.4096    9.8495 C.3     1  UNL1        0.0067
     27 C          64.4704   83.3523   11.2433 C.3     1  UNL1        0.0460
     28 C          62.0615   87.7708   10.5283 C.3     1  UNL1        0.1196
     29 C          60.5640   87.8485   10.5685 C.3     1  UNL1        0.1113
     30 N          59.8786   89.1775   10.4509 N.am    1  UNL1       -0.3026
     31 C          59.5219   89.9494   11.6866 C.2     1  UNL1        0.2230
     32 C          58.8365   91.2784   11.5690 C.3     1  UNL1        0.0946
     33 O          59.8506   89.3923   13.0399 O.2     1  UNL1       -0.2751
     34 H          59.6628   89.5432    9.5626 H       1  UNL1        0.1495
@<TRIPOS>BOND
     1    26    27    1
     2    27    14    1
     3    14    15   ar
     4    15    16   ar
     5    16    17    1
     6    16    18   ar
     7    18    19   ar
     8    19    20    1
     9    19    21   ar
    10    21     1    1
    11     1     2   ar
    12     2     3   ar
    13     3     4   ar
    14     4     5   ar
    15     5     6   ar
    16     5     7    1
    17     7    28    1
    18    28    29    1
    19    29    30    1
    20    30    31   am
    21    31    32    1
    22    31    33    2
    23     7     8   am
    24     8     9    2
    25     8    10    1
    26    10    11    1
    27    11    12    1
    28    10    13    1
    29    21    14   ar
    30     6     1   ar
    31    12    10    1
    32    13     4    1
    33    17    22    1
    34    17    23    1
    35    20    24    1
    36    20    25    1
    37    30    34    1
@<TRIPOS>MOLECULE
*****
 34 37 0 0 0
SMALL
GASTEIGER

@<TRIPOS>ATOM
      1 C          63.2905   90.4305   12.2761 C.ar    1  UNL1        0.0053
      2 C          62.5389   91.2748   11.2901 C.ar    1  UNL1        0.0033
      3 C          61.7355   90.6233   10.2037 C.ar    1  UNL1        0.0382
      4 C          61.6838   89.1276   10.1034 C.ar    1  UNL1        0.1524
      5 C          62.4354   88.2833   11.0894 C.ar    1  UNL1        0.0881
      6 C          63.2387   88.9348   12.1757 C.ar    1  UNL1        0.0181
      7 N          62.3836   86.7875   10.9890 N.am    1  UNL1       -0.2514
      8 C          61.5803   86.1361    9.9026 C.2     1  UNL1        0.2657
      9 O          61.5286   84.6404    9.8023 O.2     1  UNL1       -0.2708
     10 C          60.8287   86.9804    8.9166 C.3     1  UNL1        0.2012
     11 C          59.9309   87.0917    7.7201 C.3     1  UNL1        0.0532
     12 C          60.3350   85.7407    8.2314 C.3     1  UNL1        0.0532
     13 O          60.8804   88.4761    9.0169 O.3     1  UNL1       -0.4727
     14 C          65.2278   91.9984   13.0100 C.ar    1  UNL1        0.0645
     15 N          66.0311   92.6499   14.0963 N.ar    1  UNL1       -0.2183
     16 C          65.7005   92.3848   15.5353 C.ar    1  UNL1        0.2145
     17 N          66.5039   93.0362   16.6217 N.pl3   1  UNL1       -0.3274
     18 N          64.5666   91.4683   15.8878 N.ar    1  UNL1       -0.1995
     19 C          63.7632   90.8169   14.8014 C.ar    1  UNL1        0.1293
     20 N          62.6293   89.9004   15.1539 N.pl3   1  UNL1       -0.3425
     21 C          64.0938   91.0820   13.3625 C.ar    1  UNL1        0.0449
     22 H          67.2481   93.6378   16.3903 H       1  UNL1        0.1452
     23 H          66.2869   92.8623   17.5661 H       1  UNL1        0.1452
     24 H          62.4123   89.7265   16.0983 H       1  UNL1        0.1437
     25 H          62.1020   89.4729   14.4408 H       1  UNL1        0.1437
     26 C          65.6386   93.6742   11.0675 C.3     1  UNL1        0.0067
     27 C          65.5583   92.2635   11.5711 C.3     1  UNL1        0.0460
     28 C          63.1353   85.9432   11.9750 C.3     1  UNL1        0.1196
     29 C          62.4333   84.8344   12.7015 C.3     1  UNL1        0.1113
     30 N          62.6244   83.4123   12.2642 N.am    1  UNL1       -0.3026
     31 C          62.4988   82.2979   13.2604 C.2     1  UNL1        0.2230
     32 C          62.6899   80.8759   12.8230 C.3     1  UNL1        0.0946
     33 O          62.1821   82.6056   14.6939 O.2     1  UNL1       -0.2751
     34 H          62.8323   83.2104   11.3233 H       1  UNL1        0.1495
@<TRIPOS>BOND
     1    26    27    1
     2    27    14    1
     3    14    15   ar
     4    15    16   ar
     5    16    17    1
     6    16    18   ar
     7    18    19   ar
     8    19    20    1
     9    19    21   ar
    10    21     1    1
    11     1     2   ar
    12     2     3   ar
    13     3     4   ar
    14     4     5   ar
    15     5     6   ar
    16     5     7    1
    17     7    28    1
    18    28    29    1
    19    29    30    1
    20    30    31   am
    21    31    32    1
    22    31    33    2
    23     7     8   am
    24     8     9    2
    25     8    10    1
    26    10    11    1
    27    11    12    1
    28    10    13    1
    29    21    14   ar
    30     6     1   ar
    31    12    10    1
    32    13     4    1
    33    17    22    1
    34    17    23    1
    35    20    24    1
    36    20    25    1
    37    30    34    1
@<TRIPOS>MOLECULE
*****
 34 37 0 0 0
SMALL
GASTEIGER

@<TRIPOS>ATOM
      1 C          62.8123   88.8906   11.9481 C.ar    1  UNL1        0.0053
      2 C          63.0533   88.2808   13.2972 C.ar    1  UNL1        0.0033
      3 C          63.9469   88.9723   14.2839 C.ar    1  UNL1        0.0382
      4 C          64.5993   90.2734   13.9215 C.ar    1  UNL1        0.1524
      5 C          64.3583   90.8831   12.5724 C.ar    1  UNL1        0.0881
      6 C          63.4648   90.1918   11.5857 C.ar    1  UNL1        0.0181
      7 N          65.0107   92.1843   12.2100 N.am    1  UNL1       -0.2514
      8 C          65.9042   92.8757   13.1967 C.2     1  UNL1        0.2657
      9 O          66.5567   94.1768   12.8343 O.2     1  UNL1       -0.2708
     10 C          66.1453   92.2660   14.5458 C.3     1  UNL1        0.2012
     11 C          66.8003   92.3131   15.8944 C.3     1  UNL1        0.0532
     12 C          67.0379   93.4164   14.9063 C.3     1  UNL1        0.0532
     13 O          65.4929   90.9649   14.9082 O.3     1  UNL1       -0.4727
     14 C          60.8418   88.9696   10.2567 C.ar    1  UNL1        0.0645
     15 N          59.9483   88.2782    9.2700 N.ar    1  UNL1       -0.2183
     16 C          60.1318   86.8164    8.9880 C.ar    1  UNL1        0.2145
     17 N          59.2383   86.1250    8.0013 N.pl3   1  UNL1       -0.3274
     18 N          61.2088   86.0460    9.6927 N.ar    1  UNL1       -0.1995
     19 C          62.1023   86.7374   10.6794 C.ar    1  UNL1        0.1293
     20 N          63.1793   85.9671   11.3841 N.pl3   1  UNL1       -0.3425
     21 C          61.9188   88.1992   10.9614 C.ar    1  UNL1        0.0449
     22 H          58.5314   86.6306    7.5388 H       1  UNL1        0.1452
     23 H          59.3587   85.1656    7.8162 H       1  UNL1        0.1452
     24 H          63.2997   85.0077   11.1990 H       1  UNL1        0.1437
     25 H          63.7657   86.4209   12.0318 H       1  UNL1        0.1437
     26 C          59.5386   90.8893   11.4256 C.3     1  UNL1        0.0067
     27 C          60.6583   90.4313   10.5387 C.3     1  UNL1        0.0460
     28 C          64.7697   92.7941   10.8609 C.3     1  UNL1        0.1196
     29 C          65.9289   93.2582   10.0296 C.3     1  UNL1        0.1113
     30 N          66.0530   94.7060    9.6578 N.am    1  UNL1       -0.3026
     31 C          67.3981   95.2835    9.3300 C.2     1  UNL1        0.2230
     32 C          67.5222   96.7314    8.9581 C.3     1  UNL1        0.0946
     33 O          68.6189   94.4132    9.3742 O.2     1  UNL1       -0.2751
     34 H          65.2517   95.2773    9.6288 H       1  UNL1        0.1495
@<TRIPOS>BOND
     1    26    27    1
     2    27    14    1
     3    14    15   ar
     4    15    16   ar
     5    16    17    1
     6    16    18   ar
     7    18    19   ar
     8    19    20    1
     9    19    21   ar
    10    21     1    1
    11     1     2   ar
    12     2     3   ar
    13     3     4   ar
    14     4     5   ar
    15     5     6   ar
    16     5     7    1
    17     7    28    1
    18    28    29    1
    19    29    30    1
    20    30    31   am
    21    31    32    1
    22    31    33    2
    23     7     8   am
    24     8     9    2
    25     8    10    1
    26    10    11    1
    27    11    12    1
    28    10    13    1
    29    21    14   ar
    30     6     1   ar
    31    12    10    1
    32    13     4    1
    33    17    22    1
    34    17    23    1
    35    20    24    1
    36    20    25    1
    37    30    34    1
@<TRIPOS>MOLECULE
*****
 34 37 0 0 0
SMALL
GASTEIGER

@<TRIPOS>ATOM
      1 C          63.5092   85.3938   13.4776 C.ar    1  UNL1        0.0053
      2 C          64.3308   86.0179   14.5664 C.ar    1  UNL1        0.0033
      3 C          64.6087   87.4918   14.5450 C.ar    1  UNL1        0.0382
      4 C          64.0652   88.3415   13.4349 C.ar    1  UNL1        0.1524
      5 C          63.2436   87.7174   12.3461 C.ar    1  UNL1        0.0881
      6 C          62.9656   86.2436   12.3674 C.ar    1  UNL1        0.0181
      7 N          62.7000   88.5673   11.2359 N.am    1  UNL1       -0.2514
      8 C          62.9780   90.0411   11.2146 C.2     1  UNL1        0.2657
      9 O          62.4344   90.8908   10.1045 O.2     1  UNL1       -0.2708
     10 C          63.7996   90.6652   12.3034 C.3     1  UNL1        0.2012
     11 C          64.4344   91.8764   12.9197 C.3     1  UNL1        0.0532
     12 C          63.6462   92.0067   11.6502 C.3     1  UNL1        0.0532
     13 O          64.3431   89.8154   13.4135 O.3     1  UNL1       -0.4727
     14 C          62.3067   83.3459   14.5313 C.ar    1  UNL1        0.0645
     15 N          62.0287   81.8721   14.5526 N.ar    1  UNL1       -0.2183
     16 C          62.6752   80.9722   13.5414 C.ar    1  UNL1        0.2145
     17 N          62.3972   79.4984   13.5627 N.pl3   1  UNL1       -0.3274
     18 N          63.5996   81.5462   12.5090 N.ar    1  UNL1       -0.1995
     19 C          63.8776   83.0202   12.4877 C.ar    1  UNL1        0.1293
     20 N          64.8020   83.5942   11.4553 N.pl3   1  UNL1       -0.3425
     21 C          63.2312   83.9200   13.4989 C.ar    1  UNL1        0.0449
     22 H          61.7904   79.1217   14.2404 H       1  UNL1        0.1452
     23 H          62.8214   78.9078   12.8991 H       1  UNL1        0.1452
     24 H          65.2263   83.0036   10.7916 H       1  UNL1        0.1437
     25 H          64.9844   84.5615   11.4413 H       1  UNL1        0.1437
     26 C          62.4788   84.8381   16.6512 C.3     1  UNL1        0.0067
     27 C          61.6603   84.2457   15.5424 C.3     1  UNL1        0.0460
     28 C          61.8784   87.9432   10.1471 C.3     1  UNL1        0.1196
     29 C          60.4854   88.4335    9.8840 C.3     1  UNL1        0.1113
     30 N          60.2127   89.3208    8.7057 N.am    1  UNL1       -0.3026
     31 C          59.5140   88.7701    7.4979 C.2     1  UNL1        0.2230
     32 C          59.2414   89.6574    6.3196 C.3     1  UNL1        0.0946
     33 O          59.0880   87.3322    7.4684 O.2     1  UNL1       -0.2751
     34 H          60.4923   90.2646    8.7250 H       1  UNL1        0.1495
@<TRIPOS>BOND
     1    26    27    1
     2    27    14    1
     3    14    15   ar
     4    15    16   ar
     5    16    17    1
     6    16    18   ar
     7    18    19   ar
     8    19    20    1
     9    19    21   ar
    10    21     1    1
    11     1     2   ar
    12     2     3   ar
    13     3     4   ar
    14     4     5   ar
    15     5     6   ar
    16     5     7    1
    17     7    28    1
    18    28    29    1
    19    29    30    1
    20    30    31   am
    21    31    32    1
    22    31    33    2
    23     7     8   am
    24     8     9    2
    25     8    10    1
    26    10    11    1
    27    11    12    1
    28    10    13    1
    29    21    14   ar
    30     6     1   ar
    31    12    10    1
    32    13     4    1
    33    17    22    1
    34    17    23    1
    35    20    24    1
    36    20    25    1
    37    30    34    1
@<TRIPOS>MOLECULE
*****
 34 37 0 0 0
SMALL
GASTEIGER

@<TRIPOS>ATOM
      1 C          63.5190   83.7379   12.4965 C.ar    1  UNL1        0.0053
      2 C          64.2161   83.8443   13.8203 C.ar    1  UNL1        0.0033
      3 C          64.4217   85.1884   14.4539 C.ar    1  UNL1        0.0382
      4 C          63.9302   86.4260   13.7635 C.ar    1  UNL1        0.1524
      5 C          63.2330   86.3196   12.4396 C.ar    1  UNL1        0.0881
      6 C          63.0274   84.9757   11.8061 C.ar    1  UNL1        0.0181
      7 N          62.7415   87.5574   11.7492 N.am    1  UNL1       -0.2514
      8 C          62.9471   88.9013   12.3828 C.2     1  UNL1        0.2657
      9 O          62.4556   90.1390   11.6924 O.2     1  UNL1       -0.2708
     10 C          63.6443   89.0077   13.7067 C.3     1  UNL1        0.2012
     11 C          64.1654   89.8451   14.8367 C.3     1  UNL1        0.0532
     12 C          63.4792   90.4982   13.6738 C.3     1  UNL1        0.0532
     13 O          64.1358   87.7701   14.3970 O.3     1  UNL1       -0.4727
     14 C          62.6446   81.2954   12.6348 C.ar    1  UNL1        0.0645
     15 N          62.4390   79.9514   12.0013 N.ar    1  UNL1       -0.2183
     16 C          62.9021   79.7060   10.5958 C.ar    1  UNL1        0.2145
     17 N          62.6965   78.3620    9.9623 N.pl3   1  UNL1       -0.3274
     18 N          63.5708   80.8046    9.8239 N.ar    1  UNL1       -0.1995
     19 C          63.7764   82.1486   10.4575 C.ar    1  UNL1        0.1293
     20 N          64.4452   83.2472    9.6856 N.pl3   1  UNL1       -0.3425
     21 C          63.3133   82.3940   11.8629 C.ar    1  UNL1        0.0449
     22 H          62.2576   77.6409   10.4689 H       1  UNL1        0.1452
     23 H          63.0005   78.2009    9.0398 H       1  UNL1        0.1452
     24 H          64.7491   83.0862    8.7631 H       1  UNL1        0.1437
     25 H          64.5801   84.1294   10.1014 H       1  UNL1        0.1437
     26 C          60.8041   81.1206   14.4602 C.3     1  UNL1        0.0067
     27 C          62.1815   81.5407   14.0403 C.3     1  UNL1        0.0460
     28 C          62.0444   87.4510   10.4253 C.3     1  UNL1        0.1196
     29 C          60.6096   87.8697   10.2974 C.3     1  UNL1        0.1113
     30 N          60.2003   88.8229    9.2140 N.am    1  UNL1       -0.3026
     31 C          59.6715   88.2967    7.9125 C.2     1  UNL1        0.2230
     32 C          59.2621   89.2498    6.8291 C.3     1  UNL1        0.0946
     33 O          59.5521   86.8174    7.6947 O.2     1  UNL1       -0.2751
     34 H          60.2786   89.7938    9.3570 H       1  UNL1        0.1495
@<TRIPOS>BOND
     1    26    27    1
     2    27    14    1
     3    14    15   ar
     4    15    16   ar
     5    16    17    1
     6    16    18   ar
     7    18    19   ar
     8    19    20    1
     9    19    21   ar
    10    21     1    1
    11     1     2   ar
    12     2     3   ar
    13     3     4   ar
    14     4     5   ar
    15     5     6   ar
    16     5     7    1
    17     7    28    1
    18    28    29    1
    19    29    30    1
    20    30    31   am
    21    31    32    1
    22    31    33    2
    23     7     8   am
    24     8     9    2
    25     8    10    1
    26    10    11    1
    27    11    12    1
    28    10    13    1
    29    21    14   ar
    30     6     1   ar
    31    12    10    1
    32    13     4    1
    33    17    22    1
    34    17    23    1
    35    20    24    1
    36    20    25    1
    37    30    34    1
@<TRIPOS>MOLECULE
*****
 34 37 0 0 0
SMALL
GASTEIGER

@<TRIPOS>ATOM
      1 C          66.1249   93.7704   11.8232 C.ar    1  UNL1        0.0053
      2 C          66.6700   94.0864   13.1845 C.ar    1  UNL1        0.0033
      3 C          66.1950   93.3150   14.3801 C.ar    1  UNL1        0.0382
      4 C          65.1750   92.2278   14.2145 C.ar    1  UNL1        0.1524
      5 C          64.6299   91.9118   12.8532 C.ar    1  UNL1        0.0881
      6 C          65.1048   92.6831   11.6576 C.ar    1  UNL1        0.0181
      7 N          63.6099   90.8245   12.6876 N.am    1  UNL1       -0.2514
      8 C          63.1350   90.0532   13.8832 C.2     1  UNL1        0.2657
      9 O          62.1150   88.9660   13.7175 O.2     1  UNL1       -0.2708
     10 C          63.6801   90.3692   15.2445 C.3     1  UNL1        0.2012
     11 C          63.7206   90.1063   16.7207 C.3     1  UNL1        0.0532
     12 C          62.8170   89.2961   15.8391 C.3     1  UNL1        0.0532
     13 O          64.7001   91.4564   15.4101 O.3     1  UNL1       -0.4727
     14 C          67.4559   93.8714    9.5943 C.ar    1  UNL1        0.0645
     15 N          67.9308   94.6426    8.3986 N.ar    1  UNL1       -0.2183
     16 C          67.5496   96.0843    8.2363 C.ar    1  UNL1        0.2145
     17 N          68.0245   96.8556    7.0407 N.pl3   1  UNL1       -0.3274
     18 N          66.6935   96.7547    9.2696 N.ar    1  UNL1       -0.1995
     19 C          66.2186   95.9833   10.4653 C.ar    1  UNL1        0.1293
     20 N          65.3625   96.6537   11.4986 N.pl3   1  UNL1       -0.3425
     21 C          66.5998   94.5417   10.6276 C.ar    1  UNL1        0.0449
     22 H          68.5864   96.4157    6.3625 H       1  UNL1        0.1452
     23 H          67.7743   97.8018    6.9342 H       1  UNL1        0.1452
     24 H          65.1124   97.5999   11.3921 H       1  UNL1        0.1437
     25 H          65.0508   96.1474   12.2834 H       1  UNL1        0.1437
     26 C          68.8038   91.7973    8.7998 C.3     1  UNL1        0.0067
     27 C          67.8371   92.4297    9.7565 C.3     1  UNL1        0.0460
     28 C          63.0648   90.5086   11.3263 C.3     1  UNL1        0.1196
     29 C          61.5837   90.5242   11.0893 C.3     1  UNL1        0.1113
     30 N          61.0369   90.1758    9.7367 N.am    1  UNL1       -0.3026
     31 C          60.2805   88.8954    9.5405 C.2     1  UNL1        0.2230
     32 C          59.7337   88.5470    8.1879 C.3     1  UNL1        0.0946
     33 O          60.0710   87.9634   10.6970 O.2     1  UNL1       -0.2751
     34 H          61.1744   90.7876    8.9777 H       1  UNL1        0.1495
@<TRIPOS>BOND
     1    26    27    1
     2    27    14    1
     3    14    15   ar
     4    15    16   ar
     5    16    17    1
     6    16    18   ar
     7    18    19   ar
     8    19    20    1
     9    19    21   ar
    10    21     1    1
    11     1     2   ar
    12     2     3   ar
    13     3     4   ar
    14     4     5   ar
    15     5     6   ar
    16     5     7    1
    17     7    28    1
    18    28    29    1
    19    29    30    1
    20    30    31   am
    21    31    32    1
    22    31    33    2
    23     7     8   am
    24     8     9    2
    25     8    10    1
    26    10    11    1
    27    11    12    1
    28    10    13    1
    29    21    14   ar
    30     6     1   ar
    31    12    10    1
    32    13     4    1
    33    17    22    1
    34    17    23    1
    35    20    24    1
    36    20    25    1
    37    30    34    1
@<TRIPOS>MOLECULE
*****
 34 37 0 0 0
SMALL
GASTEIGER

@<TRIPOS>ATOM
      1 C          62.5307   85.0434   12.0793 C.ar    1  UNL1        0.0053
      2 C          61.9181   85.2791   10.7305 C.ar    1  UNL1        0.0033
      3 C          61.9058   86.6594   10.1433 C.ar    1  UNL1        0.0382
      4 C          62.5061   87.8038   10.9048 C.ar    1  UNL1        0.1524
      5 C          63.1186   87.5681   12.2536 C.ar    1  UNL1        0.0881
      6 C          63.1309   86.1879   12.8408 C.ar    1  UNL1        0.0181
      7 N          63.7188   88.7126   13.0151 N.am    1  UNL1       -0.2514
      8 C          63.7065   90.0928   12.4278 C.2     1  UNL1        0.2657
      9 O          64.3067   91.2372   13.1893 O.2     1  UNL1       -0.2708
     10 C          63.0940   90.3285   11.0790 C.3     1  UNL1        0.2012
     11 C          62.7332   91.2615    9.9613 C.3     1  UNL1        0.0532
     12 C          63.4334   91.7861   11.1796 C.3     1  UNL1        0.0532
     13 O          62.4938   89.1841   10.3175 O.3     1  UNL1       -0.4727
     14 C          62.9120   82.4875   11.8113 C.ar    1  UNL1        0.0645
     15 N          62.9243   81.1073   12.3986 N.ar    1  UNL1       -0.2183
     16 C          62.5676   80.9028   13.8412 C.ar    1  UNL1        0.2145
     17 N          62.5799   79.5226   14.4285 N.pl3   1  UNL1       -0.3274
     18 N          62.1986   82.0786   14.6965 N.ar    1  UNL1       -0.1995
     19 C          62.1863   83.4588   14.1091 C.ar    1  UNL1        0.1293
     20 N          61.8173   84.6345   14.9644 N.pl3   1  UNL1       -0.3425
     21 C          62.5430   83.6632   12.6666 C.ar    1  UNL1        0.0449
     22 H          62.8221   78.7510   13.8671 H       1  UNL1        0.1452
     23 H          62.3458   79.3884   15.3753 H       1  UNL1        0.1452
     24 H          61.5832   84.5003   15.9112 H       1  UNL1        0.1437
     25 H          61.8092   85.5404   14.5789 H       1  UNL1        0.1437
     26 C          64.6890   82.9782    9.9807 C.3     1  UNL1        0.0067
     27 C          63.2687   82.6919   10.3688 C.3     1  UNL1        0.0460
     28 C          64.3314   88.4769   14.3639 C.3     1  UNL1        0.1196
     29 C          63.8552   89.2604   15.5511 C.3     1  UNL1        0.1113
     30 N          63.0649   88.5812   16.6300 N.am    1  UNL1       -0.3026
     31 C          63.2377   87.1112   16.8740 C.2     1  UNL1        0.2230
     32 C          62.4473   86.4320   17.9528 C.3     1  UNL1        0.0946
     33 O          64.2010   86.3206   16.0391 O.2     1  UNL1       -0.2751
     34 H          62.4326   89.1001   17.1779 H       1  UNL1        0.1495
@<TRIPOS>BOND
     1    26    27    1
     2    27    14    1
     3    14    15   ar
     4    15    16   ar
     5    16    17    1
     6    16    18   ar
     7    18    19   ar
     8    19    20    1
     9    19    21   ar
    10    21     1    1
    11     1     2   ar
    12     2     3   ar
    13     3     4   ar
    14     4     5   ar
    15     5     6   ar
    16     5     7    1
    17     7    28    1
    18    28    29    1
    19    29    30    1
    20    30    31   am
    21    31    32    1
    22    31    33    2
    23     7     8   am
    24     8     9    2
    25     8    10    1
    26    10    11    1
    27    11    12    1
    28    10    13    1
    29    21    14   ar
    30     6     1   ar
    31    12    10    1
    32    13     4    1
    33    17    22    1
    34    17    23    1
    35    20    24    1
    36    20    25    1
    37    30    34    1
