@<TRIPOS>MOLECULE
*****
 44 49 0 0 0
SMALL
GASTEIGER

@<TRIPOS>ATOM
      1 C          59.7266   90.0867    6.2658 C.ar    1  UNL1        0.1348
      2 C          59.1782   88.6928    6.3456 C.ar    1  UNL1        0.0346
      3 C          59.6077   87.7803    7.4560 C.ar    1  UNL1        0.0065
      4 C          60.5854   88.2616    8.4866 C.ar    1  UNL1        0.0432
      5 C          61.1338   89.6555    8.4068 C.ar    1  UNL1        0.1256
      6 N          60.7044   90.5681    7.2964 N.ar    1  UNL1       -0.2222
      7 C          61.0149   87.3491    9.5969 C.ar    1  UNL1        0.0850
      8 C          60.6041   87.4571   11.0355 C.ar    1  UNL1        0.0991
      9 N          61.2658   86.3431   11.7914 N.ar    1  UNL1       -0.2265
     10 C          62.0855   85.5467   10.8198 C.ar    1  UNL1        0.1474
     11 C          62.9531   84.3357   10.9949 C.ar    1  UNL1        0.0332
     12 C          63.6656   83.7464    9.8138 C.ar    1  UNL1       -0.0174
     13 C          64.5333   82.5353    9.9889 C.3     1  UNL1        0.0312
     14 C          63.5105   84.3681    8.4575 C.ar    1  UNL1        0.0149
     15 C          62.6429   85.5791    8.2824 C.ar    1  UNL1        0.0811
     16 N          61.9304   86.1684    9.4636 N.ar    1  UNL1       -0.2888
     17 C          59.6918   88.4965   11.6163 C.ar    1  UNL1        0.0222
     18 C          59.7766   89.9175   11.1434 C.ar    1  UNL1        0.0222
     19 C          58.8643   90.9568   11.7242 C.ar    1  UNL1        0.0989
     20 N          57.8673   90.5752   12.7780 N.ar    1  UNL1       -0.2423
     21 C          57.7826   89.1544   13.2509 C.ar    1  UNL1        0.0989
     22 C          58.6949   88.1149   12.6701 C.ar    1  UNL1        0.0222
     23 C          60.3244   91.6258    4.2599 C.2     1  UNL1        0.2414
     24 O          61.7811   91.3399    4.4747 O.2     1  UNL1       -0.2733
     25 N          59.2971   90.9992    5.1555 N.am    1  UNL1       -0.2682
     26 H          58.3410   91.1869    5.0145 H       1  UNL1        0.1563
     27 C          59.8948   92.5383    3.1495 C.3     1  UNL1        0.1319
     28 C          59.7472   94.0094    3.4025 C.3     1  UNL1        0.0270
     29 C          60.4482   92.4037    0.6147 C.3     1  UNL1        0.0862
     30 N          59.6129   91.9797    1.7863 N.3     1  UNL1       -0.2902
     31 H          59.7012   90.9661    1.8594 H       1  UNL1        0.1237
     32 C          62.1116   90.1369    9.4374 C.1     1  UNL1       -0.0404
     33 C          63.0894   90.6184   10.4681 C.1     1  UNL1       -0.0583
     34 C          64.0672   91.0997   11.4987 C.ar    1  UNL1        0.0420
     35 C          65.0691   92.1586   11.1451 C.ar    1  UNL1        0.0083
     36 C          66.0470   92.6399   12.1757 C.ar    1  UNL1        0.0022
     37 C          66.0228   92.0624   13.5599 C.ar    1  UNL1        0.0210
     38 C          65.0209   91.0036   13.9135 C.ar    1  UNL1        0.0022
     39 C          64.0431   90.5222   12.8829 C.ar    1  UNL1        0.0083
     40 C          67.0006   92.5438   14.5905 C.ar    1  UNL1        0.1231
     41 C          67.9088   91.6807   15.4152 C.ar    1  UNL1        0.0658
     42 C          68.7114   92.5762   16.3117 C.ar    1  UNL1        0.2138
     43 O          68.2993   93.9928   16.0412 O.2     1  UNL1       -0.3502
     44 N          67.2419   93.9728   14.9774 N.ar    1  UNL1       -0.0768
@<TRIPOS>BOND
     1    29    30    1
     2    30    27    1
     3    27    28    1
     4    27    23    1
     5    23    24    2
     6    23    25   am
     7    25     1    1
     8     1     2   ar
     9     2     3   ar
    10     3     4   ar
    11     4     7    1
    12     7     8   ar
    13     8    17    1
    14    17    18   ar
    15    18    19   ar
    16    19    20   ar
    17    20    21   ar
    18    21    22   ar
    19     8     9   ar
    20     9    10   ar
    21    10    11   ar
    22    11    12   ar
    23    12    13    1
    24    12    14   ar
    25    14    15   ar
    26    15    16   ar
    27     4     5   ar
    28     5    32    1
    29    32    33    3
    30    33    34    1
    31    34    35   ar
    32    35    36   ar
    33    36    37   ar
    34    37    40    1
    35    40    41   ar
    36    41    42   ar
    37    42    43   ar
    38    43    44   ar
    39    37    38   ar
    40    38    39   ar
    41     5     6   ar
    42     6     1   ar
    43    16     7   ar
    44    39    34   ar
    45    22    17   ar
    46    16    10   ar
    47    44    40   ar
    48    30    31    1
    49    25    26    1
