@<TRIPOS>MOLECULE
*****
 29 33 0 0 0
SMALL
GASTEIGER

@<TRIPOS>ATOM
      1 C          62.3309   85.2435   11.7156 C.ar    1  UNL1        0.2326
      2 N          62.7647   86.6156   12.1390 N.ar    1  UNL1       -0.2080
      3 C          62.1440   87.6080   11.2010 C.ar    1  UNL1        0.1232
      4 C          62.2174   89.1045   11.1307 C.ar    1  UNL1        0.0741
      5 C          61.4736   89.8424   10.0572 C.ar    1  UNL1        0.0062
      6 C          60.6564   89.0837    9.0541 C.ar    1  UNL1        0.0034
      7 C          60.5829   87.5871    9.1244 C.ar    1  UNL1        0.0391
      8 C          61.3267   86.8493   10.1978 C.ar    1  UNL1        0.1649
      9 O          61.4423   85.3880   10.5158 O.2     1  UNL1       -0.4345
     10 C          62.9408   83.9072   13.8586 C.ar    1  UNL1        0.1432
     11 C          63.3278   82.6172   14.5189 C.ar    1  UNL1        0.0371
     12 C          63.4920   81.3735   13.6966 C.ar    1  UNL1        0.0031
     13 C          63.2691   81.4197   12.2140 C.ar    1  UNL1        0.0004
     14 C          62.8821   82.7097   11.5537 C.ar    1  UNL1        0.0077
     15 C          62.7180   83.9534   12.3759 C.ar    1  UNL1        0.0874
     16 C          63.8540   85.5640   15.6393 C.3     1  UNL1        0.2525
     17 O          62.7766   85.1510   14.6809 O.3     1  UNL1       -0.4713
     18 C          63.0348   89.8633   12.1339 C.2     1  UNL1        0.2474
     19 O          63.2230   91.3436   11.9824 O.2     1  UNL1       -0.2701
     20 N          63.6639   89.1415   13.2886 N.am    1  UNL1       -0.3011
     21 H          63.5989   88.1768   13.4738 H       1  UNL1        0.1497
     22 C          64.9945   90.9417   14.7564 C.3     1  UNL1        0.0878
     23 C          64.2057   91.2903   15.8034 C.3     1  UNL1        0.0919
     24 N          63.7636   91.5330   16.4542 N.3     1  UNL1       -0.2713
     25 C          65.1219   92.1504   16.3003 C.3     1  UNL1        0.0722
     26 C          65.9942   91.7649   15.1425 C.3     1  UNL1        0.0191
     27 C          65.5082   90.7620   14.1386 C.3     1  UNL1        0.0221
     28 C          64.1499   90.1445   14.2925 C.3     1  UNL1        0.0191
     29 C          63.2776   90.5300   15.4503 C.3     1  UNL1        0.0722
@<TRIPOS>BOND
     1    16    17    1
     2    17    10    1
     3    10    11   ar
     4    11    12   ar
     5    12    13   ar
     6    13    14   ar
     7    14    15   ar
     8    15     1    1
     9     1     2   ar
    10     2     3   ar
    11     3     4   ar
    12     4    18    1
    13    18    19    2
    14    18    20   am
    15    22    20    1
    16    22    23    1
    17    23    24    1
    18    24    25    1
    19    25    26    1
    20    26    27    1
    21    27    28    1
    22    28    29    1
    23     4     5   ar
    24     5     6   ar
    25     6     7   ar
    26     7     8   ar
    27     8     9   ar
    28    15    10   ar
    29     9     1   ar
    30     8     3   ar
    31    27    22    1
    32    29    24    1
    33    20    21    1
@<TRIPOS>MOLECULE
*****
 29 33 0 0 0
SMALL
GASTEIGER

@<TRIPOS>ATOM
      1 C          63.2253   90.2055   12.4811 C.ar    1  UNL1        0.2326
      2 N          63.1570   88.7144   12.3336 N.ar    1  UNL1       -0.2080
      3 C          62.1306   88.3988   11.2861 C.ar    1  UNL1        0.1232
      4 C          61.6383   87.0987   10.7229 C.ar    1  UNL1        0.0741
      5 C          60.5800   87.0946    9.6600 C.ar    1  UNL1        0.0062
      6 C          60.0140   88.3907    9.1603 C.ar    1  UNL1        0.0034
      7 C          60.5063   89.6908    9.7235 C.ar    1  UNL1        0.0391
      8 C          61.5646   89.6949   10.7864 C.ar    1  UNL1        0.1649
      9 O          62.2412   90.8115   11.5250 O.2     1  UNL1       -0.4345
     10 C          63.9143   90.8503   14.9018 C.ar    1  UNL1        0.1432
     11 C          64.8095   91.6033   15.8407 C.ar    1  UNL1        0.0371
     12 C          65.9110   92.4645   15.2978 C.ar    1  UNL1        0.0031
     13 C          66.1174   92.5728   13.8160 C.ar    1  UNL1        0.0004
     14 C          65.2222   91.8198   12.8771 C.ar    1  UNL1        0.0077
     15 C          64.1206   90.9586   13.4200 C.ar    1  UNL1        0.0874
     16 C          63.1073   88.9810   16.5157 C.3     1  UNL1        0.2525
     17 O          62.8126   89.9890   15.4447 O.3     1  UNL1       -0.4713
     18 C          62.2044   85.8025   11.2227 C.2     1  UNL1        0.2474
     19 O          62.0554   84.5541   10.4047 O.2     1  UNL1       -0.2701
     20 N          62.9193   85.7549   12.5404 N.am    1  UNL1       -0.3011
     21 H          63.0678   86.5160   13.1470 H       1  UNL1        0.1497
     22 C          63.7201   83.2337   12.9504 C.3     1  UNL1        0.0878
     23 C          62.9984   82.7302   13.9826 C.3     1  UNL1        0.0919
     24 N          62.5857   82.3812   14.6037 N.3     1  UNL1       -0.2713
     25 C          63.6159   81.5297   13.9231 C.3     1  UNL1        0.0722
     26 C          64.4141   82.0865   12.7816 C.3     1  UNL1        0.0191
     27 C          64.1819   83.4949   12.3207 C.3     1  UNL1        0.0221
     28 C          63.1515   84.3465   13.0013 C.3     1  UNL1        0.0191
     29 C          62.3534   83.7897   14.1428 C.3     1  UNL1        0.0722
@<TRIPOS>BOND
     1    16    17    1
     2    17    10    1
     3    10    11   ar
     4    11    12   ar
     5    12    13   ar
     6    13    14   ar
     7    14    15   ar
     8    15     1    1
     9     1     2   ar
    10     2     3   ar
    11     3     4   ar
    12     4    18    1
    13    18    19    2
    14    18    20   am
    15    22    20    1
    16    22    23    1
    17    23    24    1
    18    24    25    1
    19    25    26    1
    20    26    27    1
    21    27    28    1
    22    28    29    1
    23     4     5   ar
    24     5     6   ar
    25     6     7   ar
    26     7     8   ar
    27     8     9   ar
    28    15    10   ar
    29     9     1   ar
    30     8     3   ar
    31    27    22    1
    32    29    24    1
    33    20    21    1
@<TRIPOS>MOLECULE
*****
 29 33 0 0 0
SMALL
GASTEIGER

@<TRIPOS>ATOM
      1 C          66.1121   94.1737   11.3539 C.ar    1  UNL1        0.2326
      2 N          65.2692   92.9358   11.4378 N.ar    1  UNL1       -0.2080
      3 C          65.3517   92.4130   12.8414 C.ar    1  UNL1        0.1232
      4 C          64.7284   91.2222   13.5072 C.ar    1  UNL1        0.0741
      5 C          64.9989   90.9461   14.9565 C.ar    1  UNL1        0.0062
      6 C          65.8928   91.8610   15.7400 C.ar    1  UNL1        0.0034
      7 C          66.5162   93.0518   15.0742 C.ar    1  UNL1        0.0391
      8 C          66.2456   93.3279   13.6249 C.ar    1  UNL1        0.1649
      9 O          66.7156   94.4160   12.7056 O.2     1  UNL1       -0.4345
     10 C          67.5740   94.8851    9.3274 C.ar    1  UNL1        0.1432
     11 C          67.7777   95.7320    8.1062 C.ar    1  UNL1        0.0371
     12 C          66.7233   96.7144    7.6904 C.ar    1  UNL1        0.0031
     13 C          65.4651   96.8500    8.4958 C.ar    1  UNL1        0.0004
     14 C          65.2614   96.0031    9.7169 C.ar    1  UNL1        0.0077
     15 C          66.3158   95.0206   10.1327 C.ar    1  UNL1        0.0874
     16 C          68.6435   92.5237    9.1528 C.3     1  UNL1        0.2525
     17 O          68.6285   93.9026    9.7432 O.3     1  UNL1       -0.4713
     18 C          63.8344   90.3073   12.7236 C.2     1  UNL1        0.2474
     19 O          63.6993   88.8677   13.1226 O.2     1  UNL1       -0.2701
     20 N          63.0756   90.8322   11.5409 N.am    1  UNL1       -0.3011
     21 H          63.0976   91.7561   11.2018 H       1  UNL1        0.1497
     22 C          61.6508   88.8110   10.5159 C.3     1  UNL1        0.0878
     23 C          60.4804   88.7389   11.1976 C.3     1  UNL1        0.0919
     24 N          59.7570   88.6559   11.5821 N.3     1  UNL1       -0.2713
     25 C          60.0393   87.6876   10.4719 C.3     1  UNL1        0.0722
     26 C          61.3337   87.7674    9.7180 C.3     1  UNL1        0.0191
     27 C          62.3457   88.8155   10.0744 C.3     1  UNL1        0.0221
     28 C          62.0635   89.7840   11.1846 C.3     1  UNL1        0.0191
     29 C          60.7691   89.7042   11.9384 C.3     1  UNL1        0.0722
@<TRIPOS>BOND
     1    16    17    1
     2    17    10    1
     3    10    11   ar
     4    11    12   ar
     5    12    13   ar
     6    13    14   ar
     7    14    15   ar
     8    15     1    1
     9     1     2   ar
    10     2     3   ar
    11     3     4   ar
    12     4    18    1
    13    18    19    2
    14    18    20   am
    15    22    20    1
    16    22    23    1
    17    23    24    1
    18    24    25    1
    19    25    26    1
    20    26    27    1
    21    27    28    1
    22    28    29    1
    23     4     5   ar
    24     5     6   ar
    25     6     7   ar
    26     7     8   ar
    27     8     9   ar
    28    15    10   ar
    29     9     1   ar
    30     8     3   ar
    31    27    22    1
    32    29    24    1
    33    20    21    1
@<TRIPOS>MOLECULE
*****
 29 33 0 0 0
SMALL
GASTEIGER

@<TRIPOS>ATOM
      1 C          64.2517   89.7436   14.2007 C.ar    1  UNL1        0.2326
      2 N          64.1606   88.2924   13.8324 N.ar    1  UNL1       -0.2080
      3 C          63.6975   87.5354   15.0419 C.ar    1  UNL1        0.1232
      4 C          63.4283   86.0777   15.2714 C.ar    1  UNL1        0.0741
      5 C          62.9640   85.6035   16.6165 C.ar    1  UNL1        0.0062
      6 C          62.7690   86.5869   17.7322 C.ar    1  UNL1        0.0034
      7 C          63.0382   88.0446   17.5027 C.ar    1  UNL1        0.0391
      8 C          63.5024   88.5189   16.1576 C.ar    1  UNL1        0.1649
      9 O          63.8449   89.8836   15.6377 O.2     1  UNL1       -0.4345
     10 C          65.8030   91.7642   13.6900 C.ar    1  UNL1        0.1432
     11 C          66.2265   92.8796   12.7810 C.ar    1  UNL1        0.0371
     12 C          65.5221   93.0900   11.4735 C.ar    1  UNL1        0.0031
     13 C          64.3943   92.1849   11.0751 C.ar    1  UNL1        0.0004
     14 C          63.9708   91.0695   11.9841 C.ar    1  UNL1        0.0077
     15 C          64.6751   90.8591   13.2916 C.ar    1  UNL1        0.0874
     16 C          66.5884   92.6718   15.9943 C.3     1  UNL1        0.2525
     17 O          66.5074   91.5537   14.9976 O.3     1  UNL1       -0.4713
     18 C          63.6234   85.0943   14.1556 C.2     1  UNL1        0.2474
     19 O          64.8704   84.2627   14.0983 O.2     1  UNL1       -0.2701
     20 N          62.5714   84.9426   13.0971 N.am    1  UNL1       -0.3011
     21 H          61.7233   85.4400   13.0475 H       1  UNL1        0.1497
     22 C          63.4091   83.0797   11.3669 C.3     1  UNL1        0.0878
     23 C          62.9883   81.8721   11.8192 C.3     1  UNL1        0.0919
     24 N          62.7550   81.1181   12.0534 N.3     1  UNL1       -0.2713
     25 C          63.5449   81.2090   10.7815 C.3     1  UNL1        0.0722
     26 C          64.0102   82.5444   10.2814 C.3     1  UNL1        0.0191
     27 C          63.6858   83.7889   11.0532 C.3     1  UNL1        0.0221
     28 C          62.8959   83.6981   12.3253 C.3     1  UNL1        0.0191
     29 C          62.4305   82.3627   12.8253 C.3     1  UNL1        0.0722
@<TRIPOS>BOND
     1    16    17    1
     2    17    10    1
     3    10    11   ar
     4    11    12   ar
     5    12    13   ar
     6    13    14   ar
     7    14    15   ar
     8    15     1    1
     9     1     2   ar
    10     2     3   ar
    11     3     4   ar
    12     4    18    1
    13    18    19    2
    14    18    20   am
    15    22    20    1
    16    22    23    1
    17    23    24    1
    18    24    25    1
    19    25    26    1
    20    26    27    1
    21    27    28    1
    22    28    29    1
    23     4     5   ar
    24     5     6   ar
    25     6     7   ar
    26     7     8   ar
    27     8     9   ar
    28    15    10   ar
    29     9     1   ar
    30     8     3   ar
    31    27    22    1
    32    29    24    1
    33    20    21    1
@<TRIPOS>MOLECULE
*****
 29 33 0 0 0
SMALL
GASTEIGER

@<TRIPOS>ATOM
      1 C          62.5030   89.1160   11.2127 C.ar    1  UNL1        0.2326
      2 N          63.3987   90.2963   10.9795 N.ar    1  UNL1       -0.2080
      3 C          63.9940   90.6940   12.2978 C.ar    1  UNL1        0.1232
      4 C          64.9485   91.7864   12.6793 C.ar    1  UNL1        0.0741
      5 C          65.3751   91.9443   14.1087 C.ar    1  UNL1        0.0062
      6 C          64.8473   91.0097   15.1564 C.ar    1  UNL1        0.0034
      7 C          63.8928   89.9172   14.7749 C.ar    1  UNL1        0.0391
      8 C          63.4662   89.7594   13.3455 C.ar    1  UNL1        0.1649
      9 O          62.5447   88.7841   12.6749 O.2     1  UNL1       -0.4345
     10 C          60.4613   89.0187    9.6089 C.ar    1  UNL1        0.1432
     11 C          59.6639   88.2969    8.5635 C.ar    1  UNL1        0.0371
     12 C          60.1108   86.9505    8.0761 C.ar    1  UNL1        0.0031
     13 C          61.3551   86.3259    8.6343 C.ar    1  UNL1        0.0004
     14 C          62.1525   87.0477    9.6798 C.ar    1  UNL1        0.0077
     15 C          61.7056   88.3941   10.1671 C.ar    1  UNL1        0.0874
     16 C          59.3815   90.5008   11.4495 C.3     1  UNL1        0.2525
     17 O          60.0144   90.3651   10.0963 O.3     1  UNL1       -0.4713
     18 C          65.4763   92.7211   11.6315 C.2     1  UNL1        0.2474
     19 O          64.6176   93.0969   10.4605 O.2     1  UNL1       -0.2701
     20 N          66.8629   93.2798   11.7547 N.am    1  UNL1       -0.3011
     21 H          67.4999   93.0943   12.4820 H       1  UNL1        0.1497
     22 C          67.2980   94.8710    9.6465 C.3     1  UNL1        0.0878
     23 C          66.7957   96.0965    9.9390 C.3     1  UNL1        0.0919
     24 N          66.5060   96.8558   10.0709 N.3     1  UNL1       -0.2713
     25 C          67.1609   96.6109    8.7438 C.3     1  UNL1        0.0722
     26 C          67.7164   95.2556    8.4204 C.3     1  UNL1        0.0191
     27 C          67.6171   94.1453    9.4240 C.3     1  UNL1        0.0221
     28 C          66.9622   94.3902   10.7511 C.3     1  UNL1        0.0191
     29 C          66.4067   95.7454   11.0746 C.3     1  UNL1        0.0722
@<TRIPOS>BOND
     1    16    17    1
     2    17    10    1
     3    10    11   ar
     4    11    12   ar
     5    12    13   ar
     6    13    14   ar
     7    14    15   ar
     8    15     1    1
     9     1     2   ar
    10     2     3   ar
    11     3     4   ar
    12     4    18    1
    13    18    19    2
    14    18    20   am
    15    22    20    1
    16    22    23    1
    17    23    24    1
    18    24    25    1
    19    25    26    1
    20    26    27    1
    21    27    28    1
    22    28    29    1
    23     4     5   ar
    24     5     6   ar
    25     6     7   ar
    26     7     8   ar
    27     8     9   ar
    28    15    10   ar
    29     9     1   ar
    30     8     3   ar
    31    27    22    1
    32    29    24    1
    33    20    21    1
@<TRIPOS>MOLECULE
*****
 29 33 0 0 0
SMALL
GASTEIGER

@<TRIPOS>ATOM
      1 C          62.3594   85.6955   11.8452 C.ar    1  UNL1        0.2326
      2 N          63.0378   86.9384   12.3400 N.ar    1  UNL1       -0.2080
      3 C          62.3476   88.1195   11.7246 C.ar    1  UNL1        0.1232
      4 C          62.5826   89.5958   11.8481 C.ar    1  UNL1        0.0741
      5 C          61.7127   90.5592   11.0964 C.ar    1  UNL1        0.0062
      6 C          60.6077   90.0463   10.2213 C.ar    1  UNL1        0.0034
      7 C          60.3727   88.5700   10.0978 C.ar    1  UNL1        0.0391
      8 C          61.2427   87.6066   10.8495 C.ar    1  UNL1        0.1649
      9 O          61.2499   86.1085   10.9240 O.2     1  UNL1       -0.4345
     10 C          62.7496   83.8649   13.6471 C.ar    1  UNL1        0.1432
     11 C          63.1162   82.4564   14.0098 C.ar    1  UNL1        0.0371
     12 C          63.4591   81.4698   12.9333 C.ar    1  UNL1        0.0031
     13 C          63.4354   81.8917   11.4940 C.ar    1  UNL1        0.0004
     14 C          63.0689   83.3003   11.1313 C.ar    1  UNL1        0.0077
     15 C          62.7260   84.2869   12.2079 C.ar    1  UNL1        0.0874
     16 C          63.4511   85.2745   15.7138 C.3     1  UNL1        0.2525
     17 O          62.4067   84.8516   14.7237 O.3     1  UNL1       -0.4713
     18 C          63.6877   90.1088   12.7233 C.2     1  UNL1        0.2474
     19 O          64.2978   89.2152   13.7621 O.2     1  UNL1       -0.2701
     20 N          64.1825   91.5153   12.5596 N.am    1  UNL1       -0.3011
     21 H          63.8483   92.1753   11.9101 H       1  UNL1        0.1497
     22 C          66.1354   91.9126   14.3468 C.3     1  UNL1        0.0878
     23 C          67.2887   92.1210   13.6639 C.3     1  UNL1        0.0919
     24 N          68.0123   92.2526   13.2938 N.3     1  UNL1       -0.2713
     25 C          68.0141   92.2756   14.7936 C.3     1  UNL1        0.0722
     26 C          66.7387   92.0452   15.5487 C.3     1  UNL1        0.0191
     27 C          65.4615   91.7917   14.8041 C.3     1  UNL1        0.0221
     28 C          65.4597   91.7687   13.3042 C.3     1  UNL1        0.0191
     29 C          66.7351   91.9992   12.5491 C.3     1  UNL1        0.0722
@<TRIPOS>BOND
     1    16    17    1
     2    17    10    1
     3    10    11   ar
     4    11    12   ar
     5    12    13   ar
     6    13    14   ar
     7    14    15   ar
     8    15     1    1
     9     1     2   ar
    10     2     3   ar
    11     3     4   ar
    12     4    18    1
    13    18    19    2
    14    18    20   am
    15    22    20    1
    16    22    23    1
    17    23    24    1
    18    24    25    1
    19    25    26    1
    20    26    27    1
    21    27    28    1
    22    28    29    1
    23     4     5   ar
    24     5     6   ar
    25     6     7   ar
    26     7     8   ar
    27     8     9   ar
    28    15    10   ar
    29     9     1   ar
    30     8     3   ar
    31    27    22    1
    32    29    24    1
    33    20    21    1
@<TRIPOS>MOLECULE
*****
 29 33 0 0 0
SMALL
GASTEIGER

@<TRIPOS>ATOM
      1 C          64.0166   87.7481   14.1937 C.ar    1  UNL1        0.2326
      2 N          63.2581   87.4567   12.9328 N.ar    1  UNL1       -0.2080
      3 C          63.3258   85.9793   12.6822 C.ar    1  UNL1        0.1232
      4 C          62.7621   85.1197   11.5897 C.ar    1  UNL1        0.0741
      5 C          62.9987   83.6386   11.6032 C.ar    1  UNL1        0.0062
      6 C          63.7990   83.0170   12.7091 C.ar    1  UNL1        0.0034
      7 C          64.3627   83.8765   13.8016 C.ar    1  UNL1        0.0391
      8 C          64.1261   85.3577   13.7881 C.ar    1  UNL1        0.1649
      9 O          64.5530   86.4508   14.7223 O.2     1  UNL1       -0.4345
     10 C          63.3955   89.4920   16.0167 C.ar    1  UNL1        0.1432
     11 C          63.5843   90.8434   16.6397 C.ar    1  UNL1        0.0371
     12 C          64.5831   91.8022   16.0627 C.ar    1  UNL1        0.0031
     13 C          65.3930   91.4098   14.8627 C.ar    1  UNL1        0.0004
     14 C          65.2042   90.0584   14.2397 C.ar    1  UNL1        0.0077
     15 C          64.2054   89.0995   14.8167 C.ar    1  UNL1        0.0874
     16 C          62.8442   87.4726   17.5556 C.3     1  UNL1        0.2525
     17 O          62.3967   88.5330   16.5937 O.3     1  UNL1       -0.4713
     18 C          61.9618   85.7414   10.4838 C.2     1  UNL1        0.2474
     19 O          62.3761   85.5440    9.0557 O.2     1  UNL1       -0.2701
     20 N          60.7472   86.5605   10.8060 N.am    1  UNL1       -0.3011
     21 H          60.3962   86.7470   11.7067 H       1  UNL1        0.1497
     22 C          59.7032   87.4252    8.4977 C.3     1  UNL1        0.0878
     23 C          59.9773   88.7490    8.3868 C.3     1  UNL1        0.0919
     24 N          60.1194   89.5523    8.2751 N.3     1  UNL1       -0.2713
     25 C          59.3508   88.8523    7.1938 C.3     1  UNL1        0.0722
     26 C          59.0476   87.3884    7.3165 C.3     1  UNL1        0.0191
     27 C          59.5131   86.6245    8.5206 C.3     1  UNL1        0.0221
     28 C          60.2817   87.3244    9.6019 C.3     1  UNL1        0.0191
     29 C          60.5849   88.7883    9.4792 C.3     1  UNL1        0.0722
@<TRIPOS>BOND
     1    16    17    1
     2    17    10    1
     3    10    11   ar
     4    11    12   ar
     5    12    13   ar
     6    13    14   ar
     7    14    15   ar
     8    15     1    1
     9     1     2   ar
    10     2     3   ar
    11     3     4   ar
    12     4    18    1
    13    18    19    2
    14    18    20   am
    15    22    20    1
    16    22    23    1
    17    23    24    1
    18    24    25    1
    19    25    26    1
    20    26    27    1
    21    27    28    1
    22    28    29    1
    23     4     5   ar
    24     5     6   ar
    25     6     7   ar
    26     7     8   ar
    27     8     9   ar
    28    15    10   ar
    29     9     1   ar
    30     8     3   ar
    31    27    22    1
    32    29    24    1
    33    20    21    1
@<TRIPOS>MOLECULE
*****
 29 33 0 0 0
SMALL
GASTEIGER

@<TRIPOS>ATOM
      1 C          65.6408   93.2914   11.6241 C.ar    1  UNL1        0.2326
      2 N          64.6415   92.2490   11.2182 N.ar    1  UNL1       -0.2080
      3 C          64.3644   91.3831   12.4114 C.ar    1  UNL1        0.1232
      4 C          63.4650   90.1983   12.6045 C.ar    1  UNL1        0.0741
      5 C          63.3938   89.5207   13.9408 C.ar    1  UNL1        0.0062
      6 C          64.2219   90.0279   15.0840 C.ar    1  UNL1        0.0034
      7 C          65.1213   91.2127   14.8909 C.ar    1  UNL1        0.0391
      8 C          65.1925   91.8904   13.5546 C.ar    1  UNL1        0.1649
      9 O          65.9814   93.0697   13.0680 O.2     1  UNL1       -0.4345
     10 C          67.2414   94.0280    9.7147 C.ar    1  UNL1        0.1432
     11 C          67.8019   95.1033    8.8317 C.ar    1  UNL1        0.0371
     12 C          67.3221   96.5172    8.9750 C.ar    1  UNL1        0.0031
     13 C          66.2819   96.8559   10.0013 C.ar    1  UNL1        0.0004
     14 C          65.7215   95.7807   10.8843 C.ar    1  UNL1        0.0077
     15 C          66.2013   94.3667   10.7410 C.ar    1  UNL1        0.0874
     16 C          68.8920   92.3053    8.6861 C.3     1  UNL1        0.2525
     17 O          67.7212   92.6140    9.5715 O.3     1  UNL1       -0.4713
     18 C          62.6369   89.6911   11.4612 C.2     1  UNL1        0.2474
     19 O          63.1392   89.8244   10.0542 O.2     1  UNL1       -0.2701
     20 N          61.3065   89.0505   11.7251 N.am    1  UNL1       -0.3011
     21 H          60.8923   88.9176   12.6083 H       1  UNL1        0.1497
     22 C          60.2580   88.3330    9.3690 C.3     1  UNL1        0.0878
     23 C          60.4713   87.0034    9.2059 C.3     1  UNL1        0.0919
     24 N          60.5772   86.1996    9.0623 N.3     1  UNL1       -0.2713
     25 C          59.8588   86.9797    8.0015 C.3     1  UNL1        0.0722
     26 C          59.6229   88.4500    8.1818 C.3     1  UNL1        0.0191
     27 C          60.1055   89.1403    9.4230 C.3     1  UNL1        0.0221
     28 C          60.8239   88.3602   10.4839 C.3     1  UNL1        0.0191
     29 C          61.0598   86.8899   10.3036 C.3     1  UNL1        0.0722
@<TRIPOS>BOND
     1    16    17    1
     2    17    10    1
     3    10    11   ar
     4    11    12   ar
     5    12    13   ar
     6    13    14   ar
     7    14    15   ar
     8    15     1    1
     9     1     2   ar
    10     2     3   ar
    11     3     4   ar
    12     4    18    1
    13    18    19    2
    14    18    20   am
    15    22    20    1
    16    22    23    1
    17    23    24    1
    18    24    25    1
    19    25    26    1
    20    26    27    1
    21    27    28    1
    22    28    29    1
    23     4     5   ar
    24     5     6   ar
    25     6     7   ar
    26     7     8   ar
    27     8     9   ar
    28    15    10   ar
    29     9     1   ar
    30     8     3   ar
    31    27    22    1
    32    29    24    1
    33    20    21    1
@<TRIPOS>MOLECULE
*****
 29 33 0 0 0
SMALL
GASTEIGER

@<TRIPOS>ATOM
      1 C          62.5201   85.6708   12.0969 C.ar    1  UNL1        0.2326
      2 N          63.0782   87.0213   12.4355 N.ar    1  UNL1       -0.2080
      3 C          62.4395   88.0282   11.5254 C.ar    1  UNL1        0.1232
      4 C          62.6025   89.5141   11.4007 C.ar    1  UNL1        0.0741
      5 C          61.8127   90.2719   10.3751 C.ar    1  UNL1        0.0062
      6 C          60.8599   89.5437    9.4740 C.ar    1  UNL1        0.0034
      7 C          60.6970   88.0578    9.5987 C.ar    1  UNL1        0.0391
      8 C          61.4867   87.3001   10.6243 C.ar    1  UNL1        0.1649
      9 O          61.5365   85.8431   10.9775 O.2     1  UNL1       -0.4345
     10 C          63.8732   83.4530   12.1156 C.ar    1  UNL1        0.1432
     11 C          64.2351   82.1576   12.7797 C.ar    1  UNL1        0.0371
     12 C          63.6058   81.7847   14.0892 C.ar    1  UNL1        0.0031
     13 C          62.6146   82.7071   14.7346 C.ar    1  UNL1        0.0004
     14 C          62.2527   84.0025   14.0705 C.ar    1  UNL1        0.0077
     15 C          62.8820   84.3754   12.7610 C.ar    1  UNL1        0.0874
     16 C          63.7383   83.6448    9.5281 C.3     1  UNL1        0.2525
     17 O          64.5025   83.8259   10.8060 O.3     1  UNL1       -0.4713
     18 C          63.5553   90.2423   12.3018 C.2     1  UNL1        0.2474
     19 O          64.0112   91.6272   11.9492 O.2     1  UNL1       -0.2701
     20 N          64.0523   89.5856   13.5555 N.am    1  UNL1       -0.3011
     21 H          63.8128   88.6846   13.8719 H       1  UNL1        0.1497
     22 C          65.7058   91.2977   14.7802 C.3     1  UNL1        0.0878
     23 C          65.0309   91.8623   15.8125 C.3     1  UNL1        0.0919
     24 N          64.6628   92.2314   16.4498 N.3     1  UNL1       -0.2713
     25 C          66.0877   92.6179   16.1846 C.3     1  UNL1        0.0722
     26 C          66.8341   91.9936   15.0430 C.3     1  UNL1        0.0191
     27 C          66.1557   90.9829   14.1667 C.3     1  UNL1        0.0221
     28 C          64.7307   90.5963   14.4319 C.3     1  UNL1        0.0191
     29 C          63.9843   91.2206   15.5734 C.3     1  UNL1        0.0722
@<TRIPOS>BOND
     1    16    17    1
     2    17    10    1
     3    10    11   ar
     4    11    12   ar
     5    12    13   ar
     6    13    14   ar
     7    14    15   ar
     8    15     1    1
     9     1     2   ar
    10     2     3   ar
    11     3     4   ar
    12     4    18    1
    13    18    19    2
    14    18    20   am
    15    22    20    1
    16    22    23    1
    17    23    24    1
    18    24    25    1
    19    25    26    1
    20    26    27    1
    21    27    28    1
    22    28    29    1
    23     4     5   ar
    24     5     6   ar
    25     6     7   ar
    26     7     8   ar
    27     8     9   ar
    28    15    10   ar
    29     9     1   ar
    30     8     3   ar
    31    27    22    1
    32    29    24    1
    33    20    21    1
