@<TRIPOS>MOLECULE
*****
 32 36 0 0 0
SMALL
GASTEIGER

@<TRIPOS>ATOM
      1 O          64.2091   89.0306   14.9158 O.2     1  UNL1       -0.2728
      2 C          63.5542   88.8888   13.5737 C.2     1  UNL1        0.2488
      3 N          63.3851   87.5298   12.9616 N.am    1  UNL1       -0.2779
      4 C          63.8709   86.3128   13.6916 C.3     1  UNL1        0.0935
      5 C          63.7018   84.9538   13.0795 C.3     1  UNL1        0.0219
      6 C          63.0470   84.8119   11.7375 C.3     1  UNL1        0.0078
      7 C          62.5612   86.0289   11.0076 C.3     1  UNL1        0.0419
      8 C          62.7303   87.3879   11.6196 C.3     1  UNL1        0.0953
      9 C          61.9064   85.8871    9.6656 C.ar    1  UNL1       -0.0209
     10 C          62.6672   85.2897    8.5191 C.ar    1  UNL1       -0.0042
     11 C          62.0122   85.1479    7.1770 C.ar    1  UNL1       -0.0003
     12 C          60.5965   85.6035    6.9815 C.ar    1  UNL1       -0.0000
     13 C          59.8358   86.2009    8.1279 C.ar    1  UNL1       -0.0003
     14 C          60.4907   86.3427    9.4699 C.ar    1  UNL1       -0.0042
     15 C          63.0685   90.1058   12.8438 C.3     1  UNL1        0.1946
     16 N          64.0471   91.1467   12.3867 N.ar    1  UNL1       -0.2808
     17 C          64.1935   91.6648   10.9867 C.ar    1  UNL1        0.2927
     18 O          63.3869   91.2331    9.7979 O.2     1  UNL1       -0.2594
     19 S          65.2880   92.6905   10.9841 S.2     1  UNL1       -0.0260
     20 C          65.8181   92.8062   12.3826 C.ar    1  UNL1        0.0498
     21 C          66.9000   93.6572   12.9786 C.ar    1  UNL1        0.0089
     22 C          67.2150   93.5540   14.4415 C.ar    1  UNL1        0.0120
     23 C          66.4481   92.5999   15.3083 C.ar    1  UNL1        0.0591
     24 CL         66.7631   92.4967   16.7713 Cl      1  UNL1       -0.0822
     25 C          65.3662   91.7489   14.7123 C.ar    1  UNL1        0.0292
     26 C          65.0512   91.8521   13.2494 C.ar    1  UNL1        0.0704
     27 C          62.2446   88.6049   10.8897 C.3     1  UNL1        0.0924
     28 N          60.9220   89.2157   11.2469 N.3     1  UNL1       -0.2713
     29 C          59.8772   88.6016   12.1308 C.3     1  UNL1        0.0722
     30 C          58.7214   89.5542   12.2132 C.3     1  UNL1        0.0188
     31 C          59.0519   90.7571   11.3801 C.3     1  UNL1        0.0188
     32 C          60.4119   90.5479   10.7829 C.3     1  UNL1        0.0722
@<TRIPOS>BOND
     1     1     2    2
     2     2    15    1
     3    15    16    1
     4    16    17   ar
     5    17    18    2
     6    17    19   ar
     7    19    20   ar
     8    20    21   ar
     9    21    22   ar
    10    22    23   ar
    11    23    24    1
    12    23    25   ar
    13    25    26   ar
    14     2     3   am
    15     3     4    1
    16     4     5    1
    17     5     6    1
    18     6     7    1
    19     7     9    1
    20     9    10   ar
    21    10    11   ar
    22    11    12   ar
    23    12    13   ar
    24    13    14   ar
    25     7     8    1
    26     8    27    1
    27    27    28    1
    28    28    29    1
    29    29    30    1
    30    30    31    1
    31    31    32    1
    32    26    16   ar
    33     8     3    1
    34    32    28    1
    35    26    20   ar
    36    14     9   ar
@<TRIPOS>MOLECULE
*****
 32 36 0 0 0
SMALL
GASTEIGER

@<TRIPOS>ATOM
      1 O          63.4382   91.0791   12.5629 O.2     1  UNL1       -0.2728
      2 C          63.7201   89.6991   13.0790 C.2     1  UNL1        0.2488
      3 N          63.1011   88.5075   12.4105 N.am    1  UNL1       -0.2779
      4 C          62.2002   88.6959   11.2261 C.3     1  UNL1        0.0935
      5 C          61.5811   87.5042   10.5576 C.3     1  UNL1        0.0219
      6 C          61.8630   86.1243   11.0736 C.3     1  UNL1        0.0078
      7 C          62.7639   85.9359   12.2580 C.3     1  UNL1        0.0419
      8 C          63.3829   87.1275   12.9265 C.3     1  UNL1        0.0953
      9 C          63.0458   84.5560   12.7740 C.ar    1  UNL1       -0.0209
     10 C          62.1863   83.9690   13.8542 C.ar    1  UNL1       -0.0042
     11 C          62.4683   82.5890   14.3702 C.ar    1  UNL1       -0.0003
     12 C          63.6097   81.7961   13.8060 C.ar    1  UNL1       -0.0000
     13 C          64.4692   82.3830   12.7258 C.ar    1  UNL1       -0.0003
     14 C          64.1872   83.7630   12.2099 C.ar    1  UNL1       -0.0042
     15 C          64.6210   89.5109   14.2634 C.3     1  UNL1        0.1946
     16 N          65.0368   90.6948   15.0852 N.ar    1  UNL1       -0.2808
     17 C          64.2195   91.3564   16.1549 C.ar    1  UNL1        0.2927
     18 O          62.8429   90.9502   16.5906 O.2     1  UNL1       -0.2594
     19 S          65.0206   92.4955   16.7123 S.2     1  UNL1       -0.0260
     20 C          66.3330   92.5379   15.9872 C.ar    1  UNL1        0.0498
     21 C          67.5201   93.4461   16.1127 C.ar    1  UNL1        0.0089
     22 C          68.7173   93.2414   15.2325 C.ar    1  UNL1        0.0120
     23 C          68.7274   92.1285   14.2268 C.ar    1  UNL1        0.0591
     24 CL         69.9246   91.9238   13.3466 Cl      1  UNL1       -0.0822
     25 C          67.5402   91.2203   14.1013 C.ar    1  UNL1        0.0292
     26 C          66.3430   91.4250   14.9815 C.ar    1  UNL1        0.0704
     27 C          64.2838   86.9392   14.1109 C.3     1  UNL1        0.0924
     28 N          63.6975   86.7984   15.4843 N.3     1  UNL1       -0.2713
     29 C          63.1083   87.9041   16.3091 C.3     1  UNL1        0.0722
     30 C          62.6441   87.3163   17.6087 C.3     1  UNL1        0.0188
     31 C          62.9464   85.8471   17.5871 C.3     1  UNL1        0.0188
     32 C          63.5974   85.5271   16.2742 C.3     1  UNL1        0.0722
@<TRIPOS>BOND
     1     1     2    2
     2     2    15    1
     3    15    16    1
     4    16    17   ar
     5    17    18    2
     6    17    19   ar
     7    19    20   ar
     8    20    21   ar
     9    21    22   ar
    10    22    23   ar
    11    23    24    1
    12    23    25   ar
    13    25    26   ar
    14     2     3   am
    15     3     4    1
    16     4     5    1
    17     5     6    1
    18     6     7    1
    19     7     9    1
    20     9    10   ar
    21    10    11   ar
    22    11    12   ar
    23    12    13   ar
    24    13    14   ar
    25     7     8    1
    26     8    27    1
    27    27    28    1
    28    28    29    1
    29    29    30    1
    30    30    31    1
    31    31    32    1
    32    26    16   ar
    33     8     3    1
    34    32    28    1
    35    26    20   ar
    36    14     9   ar
@<TRIPOS>MOLECULE
*****
 32 36 0 0 0
SMALL
GASTEIGER

@<TRIPOS>ATOM
      1 O          63.5795   90.4685   16.0515 O.2     1  UNL1       -0.2728
      2 C          63.7078   89.2194   15.2309 C.2     1  UNL1        0.2488
      3 N          63.3885   87.8861   15.8396 N.am    1  UNL1       -0.2779
      4 C          62.9410   87.8020   17.2688 C.3     1  UNL1        0.0935
      5 C          62.6217   86.4688   17.8775 C.3     1  UNL1        0.0219
      6 C          62.7500   85.2196   17.0571 C.3     1  UNL1        0.0078
      7 C          63.1975   85.3037   15.6279 C.3     1  UNL1        0.0419
      8 C          63.5168   86.6370   15.0191 C.3     1  UNL1        0.0953
      9 C          63.3258   84.0547   14.8073 C.ar    1  UNL1       -0.0209
     10 C          64.6000   83.7700   14.0688 C.ar    1  UNL1       -0.0042
     11 C          64.7282   82.5208   13.2482 C.ar    1  UNL1       -0.0003
     12 C          63.5822   81.5564   13.1662 C.ar    1  UNL1       -0.0000
     13 C          62.3080   81.8411   13.9047 C.ar    1  UNL1       -0.0003
     14 C          62.1798   83.0902   14.7252 C.ar    1  UNL1       -0.0042
     15 C          64.1553   89.3036   13.8017 C.3     1  UNL1        0.1946
     16 N          64.5913   90.6194   13.2286 N.ar    1  UNL1       -0.2808
     17 C          64.0443   91.2665   11.9909 C.ar    1  UNL1        0.2927
     18 O          62.9653   90.7116   11.1090 O.2     1  UNL1       -0.2594
     19 S          64.7659   92.5661   11.7898 S.2     1  UNL1       -0.0260
     20 C          65.7588   92.7221   12.9033 C.ar    1  UNL1        0.0498
     21 C          66.7472   93.8043   13.2224 C.ar    1  UNL1        0.0089
     22 C          67.6277   93.6833   14.4307 C.ar    1  UNL1        0.0120
     23 C          67.5198   92.4801   15.3199 C.ar    1  UNL1        0.0591
     24 CL         68.4004   92.3591   16.5282 Cl      1  UNL1       -0.0822
     25 C          66.5314   91.3979   15.0008 C.ar    1  UNL1        0.0292
     26 C          65.6509   91.5189   13.7925 C.ar    1  UNL1        0.0704
     27 C          63.9643   86.7211   13.5899 C.3     1  UNL1        0.0924
     28 N          62.9648   86.5748   12.4811 N.3     1  UNL1       -0.2713
     29 C          62.5710   85.2909   11.8129 C.3     1  UNL1        0.0722
     30 C          61.5464   85.6092   10.7646 C.3     1  UNL1        0.0188
     31 C          61.3068   87.0899   10.7850 C.3     1  UNL1        0.0188
     32 C          62.1835   87.6866   11.8460 C.3     1  UNL1        0.0722
@<TRIPOS>BOND
     1     1     2    2
     2     2    15    1
     3    15    16    1
     4    16    17   ar
     5    17    18    2
     6    17    19   ar
     7    19    20   ar
     8    20    21   ar
     9    21    22   ar
    10    22    23   ar
    11    23    24    1
    12    23    25   ar
    13    25    26   ar
    14     2     3   am
    15     3     4    1
    16     4     5    1
    17     5     6    1
    18     6     7    1
    19     7     9    1
    20     9    10   ar
    21    10    11   ar
    22    11    12   ar
    23    12    13   ar
    24    13    14   ar
    25     7     8    1
    26     8    27    1
    27    27    28    1
    28    28    29    1
    29    29    30    1
    30    30    31    1
    31    31    32    1
    32    26    16   ar
    33     8     3    1
    34    32    28    1
    35    26    20   ar
    36    14     9   ar
@<TRIPOS>MOLECULE
*****
 32 36 0 0 0
SMALL
GASTEIGER

@<TRIPOS>ATOM
      1 O          61.9795   90.6675   12.1414 O.2     1  UNL1       -0.2728
      2 C          62.5564   89.2935   12.3130 C.2     1  UNL1        0.2488
      3 N          62.0530   88.1583   11.4716 N.am    1  UNL1       -0.2779
      4 C          60.9729   88.3971   10.4586 C.3     1  UNL1        0.0935
      5 C          60.4695   87.2620    9.6172 C.3     1  UNL1        0.0219
      6 C          61.0463   85.8880    9.7888 C.3     1  UNL1        0.0078
      7 C          62.1265   85.6492   10.8018 C.3     1  UNL1        0.0419
      8 C          62.6298   86.7844   11.6432 C.3     1  UNL1        0.0953
      9 C          62.7033   84.2753   10.9734 C.ar    1  UNL1       -0.0209
     10 C          63.9685   83.8986   10.2612 C.ar    1  UNL1       -0.0042
     11 C          64.5454   82.5245   10.4329 C.ar    1  UNL1       -0.0003
     12 C          63.8569   81.5272   11.3169 C.ar    1  UNL1       -0.0000
     13 C          62.5917   81.9039   12.0292 C.ar    1  UNL1       -0.0003
     14 C          62.0149   83.2779   11.8574 C.ar    1  UNL1       -0.0042
     15 C          63.6365   89.0548   13.3260 C.3     1  UNL1        0.1946
     16 N          64.2044   90.2058   14.1024 N.ar    1  UNL1       -0.2808
     17 C          64.0535   90.4346   15.5771 C.ar    1  UNL1        0.2927
     18 O          63.3082   89.5526   16.5345 O.2     1  UNL1       -0.2594
     19 S          64.7788   91.7003   15.9264 S.2     1  UNL1       -0.0260
     20 C          65.3779   92.2538   14.6675 C.ar    1  UNL1        0.0498
     21 C          66.2008   93.4794   14.4021 C.ar    1  UNL1        0.0089
     22 C          66.6687   93.7815   13.0093 C.ar    1  UNL1        0.0120
     23 C          66.3137   92.8578   11.8820 C.ar    1  UNL1        0.0591
     24 CL         66.7817   93.1599   10.4892 Cl      1  UNL1       -0.0822
     25 C          65.4908   91.6321   12.1474 C.ar    1  UNL1        0.0292
     26 C          65.0229   91.3301   13.5402 C.ar    1  UNL1        0.0704
     27 C          63.7100   86.5456   12.6562 C.3     1  UNL1        0.0924
     28 N          63.5572   85.4526   13.6721 N.3     1  UNL1       -0.2713
     29 C          64.5852   84.4142   14.0112 C.3     1  UNL1        0.0722
     30 C          64.0131   83.5258   15.0759 C.3     1  UNL1        0.0188
     31 C          62.6314   84.0153   15.3948 C.3     1  UNL1        0.0188
     32 C          62.3497   85.2061   14.5272 C.3     1  UNL1        0.0722
@<TRIPOS>BOND
     1     1     2    2
     2     2    15    1
     3    15    16    1
     4    16    17   ar
     5    17    18    2
     6    17    19   ar
     7    19    20   ar
     8    20    21   ar
     9    21    22   ar
    10    22    23   ar
    11    23    24    1
    12    23    25   ar
    13    25    26   ar
    14     2     3   am
    15     3     4    1
    16     4     5    1
    17     5     6    1
    18     6     7    1
    19     7     9    1
    20     9    10   ar
    21    10    11   ar
    22    11    12   ar
    23    12    13   ar
    24    13    14   ar
    25     7     8    1
    26     8    27    1
    27    27    28    1
    28    28    29    1
    29    29    30    1
    30    30    31    1
    31    31    32    1
    32    26    16   ar
    33     8     3    1
    34    32    28    1
    35    26    20   ar
    36    14     9   ar
@<TRIPOS>MOLECULE
*****
 32 36 0 0 0
SMALL
GASTEIGER

@<TRIPOS>ATOM
      1 O          64.6535   87.7882   15.0443 O.2     1  UNL1       -0.2728
      2 C          63.8908   87.9955   13.7693 C.2     1  UNL1        0.2488
      3 N          63.3948   86.8128   12.9914 N.am    1  UNL1       -0.2779
      4 C          63.6614   85.4229   13.4884 C.3     1  UNL1        0.0935
      5 C          63.1653   84.2402   12.7105 C.3     1  UNL1        0.0219
      6 C          62.4027   84.4474   11.4356 C.3     1  UNL1        0.0078
      7 C          62.1361   85.8373   10.9385 C.3     1  UNL1        0.0419
      8 C          62.6321   87.0200   11.7165 C.3     1  UNL1        0.0953
      9 C          61.3735   86.0446    9.6637 C.ar    1  UNL1       -0.0209
     10 C          61.9147   85.5106    8.3706 C.ar    1  UNL1       -0.0042
     11 C          61.1519   85.7179    7.0957 C.ar    1  UNL1       -0.0003
     12 C          59.8481   86.4592    7.1138 C.ar    1  UNL1       -0.0000
     13 C          59.3069   86.9933    8.4069 C.ar    1  UNL1       -0.0003
     14 C          60.0696   86.7859    9.6817 C.ar    1  UNL1       -0.0042
     15 C          63.6243   89.3854   13.2723 C.3     1  UNL1        0.1946
     16 N          64.2756   90.5591   13.9418 N.ar    1  UNL1       -0.2808
     17 C          64.1993   90.8956   15.4016 C.ar    1  UNL1        0.2927
     18 O          63.4584   90.1175   16.4482 O.2     1  UNL1       -0.2594
     19 S          64.9942   92.1469   15.6309 S.2     1  UNL1       -0.0260
     20 C          65.5616   92.5837   14.3129 C.ar    1  UNL1        0.0498
     21 C          66.4254   93.7482   13.9284 C.ar    1  UNL1        0.0089
     22 C          66.8450   93.9314   12.5001 C.ar    1  UNL1        0.0120
     23 C          66.4009   92.9501   11.4561 C.ar    1  UNL1        0.0591
     24 CL         66.8205   93.1334   10.0277 Cl      1  UNL1       -0.0822
     25 C          65.5371   91.7856   11.8406 C.ar    1  UNL1        0.0292
     26 C          65.1175   91.6024   13.2689 C.ar    1  UNL1        0.0704
     27 C          62.3655   88.4099   11.2194 C.3     1  UNL1        0.0924
     28 N          61.0534   89.0736   11.5156 N.3     1  UNL1       -0.2713
     29 C          60.5996   90.4033   10.9904 C.3     1  UNL1        0.0722
     30 C          59.2304   90.6757   11.5390 C.3     1  UNL1        0.0188
     31 C          58.8379   89.5143   12.4035 C.3     1  UNL1        0.0188
     32 C          59.9647   88.5241   12.3889 C.3     1  UNL1        0.0722
@<TRIPOS>BOND
     1     1     2    2
     2     2    15    1
     3    15    16    1
     4    16    17   ar
     5    17    18    2
     6    17    19   ar
     7    19    20   ar
     8    20    21   ar
     9    21    22   ar
    10    22    23   ar
    11    23    24    1
    12    23    25   ar
    13    25    26   ar
    14     2     3   am
    15     3     4    1
    16     4     5    1
    17     5     6    1
    18     6     7    1
    19     7     9    1
    20     9    10   ar
    21    10    11   ar
    22    11    12   ar
    23    12    13   ar
    24    13    14   ar
    25     7     8    1
    26     8    27    1
    27    27    28    1
    28    28    29    1
    29    29    30    1
    30    30    31    1
    31    31    32    1
    32    26    16   ar
    33     8     3    1
    34    32    28    1
    35    26    20   ar
    36    14     9   ar
@<TRIPOS>MOLECULE
*****
 32 36 0 0 0
SMALL
GASTEIGER

@<TRIPOS>ATOM
      1 O          61.7480   86.3204   11.3280 O.2     1  UNL1       -0.2728
      2 C          62.6806   86.9603   12.3134 C.2     1  UNL1        0.2488
      3 N          62.9685   88.4299   12.2282 N.am    1  UNL1       -0.2779
      4 C          62.3238   89.2596   11.1577 C.3     1  UNL1        0.0935
      5 C          62.6117   90.7293   11.0725 C.3     1  UNL1        0.0219
      6 C          63.5443   91.3692   12.0577 C.3     1  UNL1        0.0078
      7 C          64.1890   90.5395   13.1282 C.3     1  UNL1        0.0419
      8 C          63.9011   89.0698   13.2134 C.3     1  UNL1        0.0953
      9 C          65.1216   91.1793   14.1134 C.ar    1  UNL1       -0.0209
     10 C          66.5812   91.3057   13.7917 C.ar    1  UNL1       -0.0042
     11 C          67.5139   91.9456   14.7770 C.ar    1  UNL1       -0.0003
     12 C          66.9868   92.4591   16.0841 C.ar    1  UNL1       -0.0000
     13 C          65.5272   92.3328   16.4059 C.ar    1  UNL1       -0.0003
     14 C          64.5946   91.6929   15.4206 C.ar    1  UNL1       -0.0042
     15 C          63.3253   86.1305   13.3837 C.3     1  UNL1        0.1946
     16 N          62.8994   84.7068   13.5877 N.ar    1  UNL1       -0.2808
     17 C          62.1383   84.1743   14.7655 C.ar    1  UNL1        0.2927
     18 O          61.6696   84.9720   15.9462 O.2     1  UNL1       -0.2594
     19 S          61.9283   82.7040   14.5554 S.2     1  UNL1       -0.0260
     20 C          62.5596   82.3278   13.2477 C.ar    1  UNL1        0.0498
     21 C          62.6655   81.0181   12.5243 C.ar    1  UNL1        0.0089
     22 C          63.3715   80.9462   11.2028 C.ar    1  UNL1        0.0120
     23 C          63.9716   82.1840   10.6048 C.ar    1  UNL1        0.0591
     24 CL         64.6777   82.1120    9.2832 Cl      1  UNL1       -0.0822
     25 C          63.8658   83.4937   11.3282 C.ar    1  UNL1        0.0292
     26 C          63.1598   83.5656   12.6497 C.ar    1  UNL1        0.0704
     27 C          64.5459   88.2401   14.2838 C.3     1  UNL1        0.0924
     28 N          63.8511   88.0397   15.5980 N.3     1  UNL1       -0.2713
     29 C          63.8186   86.7682   16.3931 C.3     1  UNL1        0.0722
     30 C          63.0142   87.0181   17.6343 C.3     1  UNL1        0.0188
     31 C          62.5495   88.4441   17.6063 C.3     1  UNL1        0.0188
     32 C          63.0668   89.0754   16.3477 C.3     1  UNL1        0.0722
@<TRIPOS>BOND
     1     1     2    2
     2     2    15    1
     3    15    16    1
     4    16    17   ar
     5    17    18    2
     6    17    19   ar
     7    19    20   ar
     8    20    21   ar
     9    21    22   ar
    10    22    23   ar
    11    23    24    1
    12    23    25   ar
    13    25    26   ar
    14     2     3   am
    15     3     4    1
    16     4     5    1
    17     5     6    1
    18     6     7    1
    19     7     9    1
    20     9    10   ar
    21    10    11   ar
    22    11    12   ar
    23    12    13   ar
    24    13    14   ar
    25     7     8    1
    26     8    27    1
    27    27    28    1
    28    28    29    1
    29    29    30    1
    30    30    31    1
    31    31    32    1
    32    26    16   ar
    33     8     3    1
    34    32    28    1
    35    26    20   ar
    36    14     9   ar
@<TRIPOS>MOLECULE
*****
 32 36 0 0 0
SMALL
GASTEIGER

@<TRIPOS>ATOM
      1 O          64.6350   94.2502   -5.2929 O.2     1  UNL1       -0.2728
      2 C          63.4886   94.0306   -4.3507 C.2     1  UNL1        0.2488
      3 N          62.0795   94.2300   -4.8248 N.am    1  UNL1       -0.2779
      4 C          61.8168   94.6488   -6.2409 C.3     1  UNL1        0.0935
      5 C          60.4077   94.8482   -6.7150 C.3     1  UNL1        0.0219
      6 C          59.2613   94.6286   -5.7730 C.3     1  UNL1        0.0078
      7 C          59.5240   94.2098   -4.3568 C.3     1  UNL1        0.0419
      8 C          60.9331   94.0104   -3.8827 C.3     1  UNL1        0.0953
      9 C          58.3776   93.9903   -3.4147 C.ar    1  UNL1       -0.0209
     10 C          57.6865   95.1647   -2.7878 C.ar    1  UNL1       -0.0042
     11 C          56.5400   94.9451   -1.8456 C.ar    1  UNL1       -0.0003
     12 C          56.0849   93.5510   -1.5304 C.ar    1  UNL1       -0.0000
     13 C          56.7761   92.3765   -2.1572 C.ar    1  UNL1       -0.0003
     14 C          57.9224   92.5962   -3.0993 C.ar    1  UNL1       -0.0042
     15 C          63.7513   93.6118   -2.9346 C.3     1  UNL1        0.1946
     16 N          64.2785   94.6068   -1.9436 N.ar    1  UNL1       -0.2808
     17 C          64.9472   95.9087   -2.2720 C.ar    1  UNL1        0.2927
     18 O          65.2061   96.4442   -3.6490 O.2     1  UNL1       -0.2594
     19 S          65.3115   96.5811   -0.9816 S.2     1  UNL1       -0.0260
     20 C          64.8679   95.6948    0.1443 C.ar    1  UNL1        0.0498
     21 C          64.9629   95.8411    1.6341 C.ar    1  UNL1        0.0089
     22 C          64.4194   94.7673    2.5293 C.ar    1  UNL1        0.0120
     23 C          63.7810   93.5471    1.9348 C.ar    1  UNL1        0.0591
     24 CL         63.2375   92.4732    2.8301 Cl      1  UNL1       -0.0822
     25 C          63.6860   93.4007    0.4450 C.ar    1  UNL1        0.0292
     26 C          64.2295   94.4746   -0.4502 C.ar    1  UNL1        0.0704
     27 C          61.1957   93.5916   -2.4665 C.3     1  UNL1        0.0924
     28 N          60.7563   94.4681   -1.3314 N.3     1  UNL1       -0.2713
     29 C          60.0284   94.0170   -0.0999 C.3     1  UNL1        0.0722
     30 C          59.7899   95.2196    0.7643 C.3     1  UNL1        0.0188
     31 C          60.3704   96.4140    0.0669 C.3     1  UNL1        0.0188
     32 C          60.9677   95.9495   -1.2283 C.3     1  UNL1        0.0722
@<TRIPOS>BOND
     1     1     2    2
     2     2    15    1
     3    15    16    1
     4    16    17   ar
     5    17    18    2
     6    17    19   ar
     7    19    20   ar
     8    20    21   ar
     9    21    22   ar
    10    22    23   ar
    11    23    24    1
    12    23    25   ar
    13    25    26   ar
    14     2     3   am
    15     3     4    1
    16     4     5    1
    17     5     6    1
    18     6     7    1
    19     7     9    1
    20     9    10   ar
    21    10    11   ar
    22    11    12   ar
    23    12    13   ar
    24    13    14   ar
    25     7     8    1
    26     8    27    1
    27    27    28    1
    28    28    29    1
    29    29    30    1
    30    30    31    1
    31    31    32    1
    32    26    16   ar
    33     8     3    1
    34    32    28    1
    35    26    20   ar
    36    14     9   ar
@<TRIPOS>MOLECULE
*****
 32 36 0 0 0
SMALL
GASTEIGER

@<TRIPOS>ATOM
      1 O          64.2501   83.3397    9.6931 O.2     1  UNL1       -0.2728
      2 C          63.5764   84.4672   10.4178 C.2     1  UNL1        0.2488
      3 N          62.5702   85.3215    9.7054 N.am    1  UNL1       -0.2779
      4 C          62.2376   85.0485    8.2685 C.3     1  UNL1        0.0935
      5 C          61.2313   85.9029    7.5561 C.3     1  UNL1        0.0219
      6 C          60.5576   87.0303    8.2807 C.3     1  UNL1        0.0078
      7 C          60.8902   87.3034    9.7176 C.3     1  UNL1        0.0419
      8 C          61.8965   86.4490   10.4300 C.3     1  UNL1        0.0953
      9 C          60.2166   88.4308   10.4422 C.ar    1  UNL1       -0.0209
     10 C          59.4506   88.1605   11.7033 C.ar    1  UNL1       -0.0042
     11 C          58.7770   89.2881   12.4279 C.ar    1  UNL1       -0.0003
     12 C          58.8694   90.6858   11.8915 C.ar    1  UNL1       -0.0000
     13 C          59.6354   90.9561   10.6304 C.ar    1  UNL1       -0.0003
     14 C          60.3090   89.8286    9.9059 C.ar    1  UNL1       -0.0042
     15 C          63.9091   84.7401   11.8546 C.3     1  UNL1        0.1946
     16 N          63.3741   83.8437   12.9318 N.ar    1  UNL1       -0.2808
     17 C          63.0874   84.2425   14.3491 C.ar    1  UNL1        0.2927
     18 O          63.2853   85.6077   14.9381 O.2     1  UNL1       -0.2594
     19 S          62.5681   83.0363   15.0739 S.2     1  UNL1       -0.0260
     20 C          62.5338   81.8921   14.1046 C.ar    1  UNL1        0.0498
     21 C          62.1133   80.4603   14.2565 C.ar    1  UNL1        0.0089
     22 C          62.1910   79.5275   13.0844 C.ar    1  UNL1        0.0120
     23 C          62.6892   80.0265   11.7605 C.ar    1  UNL1        0.0591
     24 CL         62.7669   79.0936   10.5883 Cl      1  UNL1       -0.0822
     25 C          63.1097   81.4583   11.6086 C.ar    1  UNL1        0.0292
     26 C          63.0320   82.3911   12.7807 C.ar    1  UNL1        0.0704
     27 C          62.2291   86.7220   11.8669 C.3     1  UNL1        0.0924
     28 N          62.8980   88.0086   12.2506 N.3     1  UNL1       -0.2713
     29 C          63.7161   88.2428   13.4858 C.3     1  UNL1        0.0722
     30 C          64.1900   89.6658   13.4651 C.3     1  UNL1        0.0188
     31 C          63.6647   90.3112   12.2170 C.3     1  UNL1        0.0188
     32 C          62.8662   89.2869   11.4664 C.3     1  UNL1        0.0722
@<TRIPOS>BOND
     1     1     2    2
     2     2    15    1
     3    15    16    1
     4    16    17   ar
     5    17    18    2
     6    17    19   ar
     7    19    20   ar
     8    20    21   ar
     9    21    22   ar
    10    22    23   ar
    11    23    24    1
    12    23    25   ar
    13    25    26   ar
    14     2     3   am
    15     3     4    1
    16     4     5    1
    17     5     6    1
    18     6     7    1
    19     7     9    1
    20     9    10   ar
    21    10    11   ar
    22    11    12   ar
    23    12    13   ar
    24    13    14   ar
    25     7     8    1
    26     8    27    1
    27    27    28    1
    28    28    29    1
    29    29    30    1
    30    30    31    1
    31    31    32    1
    32    26    16   ar
    33     8     3    1
    34    32    28    1
    35    26    20   ar
    36    14     9   ar
@<TRIPOS>MOLECULE
*****
 32 36 0 0 0
SMALL
GASTEIGER

@<TRIPOS>ATOM
      1 O          63.8791   90.1895   16.1602 O.2     1  UNL1       -0.2728
      2 C          63.9776   88.8830   15.4297 C.2     1  UNL1        0.2488
      3 N          63.4464   87.6297   16.0599 N.am    1  UNL1       -0.2779
      4 C          62.8169   87.6829   17.4203 C.3     1  UNL1        0.0935
      5 C          62.2857   86.4296   18.0505 C.3     1  UNL1        0.0219
      6 C          62.3841   85.1231   17.3202 C.3     1  UNL1        0.0078
      7 C          63.0136   85.0699   15.9597 C.3     1  UNL1        0.0419
      8 C          63.5448   86.3232   15.3296 C.3     1  UNL1        0.0953
      9 C          63.1120   83.7634   15.2294 C.ar    1  UNL1       -0.0209
     10 C          61.8696   83.0894   14.7272 C.ar    1  UNL1       -0.0042
     11 C          61.9681   81.7828   13.9968 C.ar    1  UNL1       -0.0003
     12 C          63.3090   81.1504   13.7686 C.ar    1  UNL1       -0.0000
     13 C          64.5514   81.8245   14.2707 C.ar    1  UNL1       -0.0003
     14 C          64.4529   83.1309   15.0011 C.ar    1  UNL1       -0.0042
     15 C          64.6071   88.8299   14.0693 C.3     1  UNL1        0.1946
     16 N          64.3842   89.9488   13.0955 N.ar    1  UNL1       -0.2808
     17 C          65.0383   91.2980   13.1380 C.ar    1  UNL1        0.2927
     18 O          66.0300   91.7652   14.1618 O.2     1  UNL1       -0.2594
     19 S          64.5264   92.0980   11.9770 S.2     1  UNL1       -0.0260
     20 C          63.5560   91.2432   11.2169 C.ar    1  UNL1        0.0498
     21 C          62.7411   91.5027    9.9846 C.ar    1  UNL1        0.0089
     22 C          61.8383   90.4339    9.4437 C.ar    1  UNL1        0.0120
     23 C          61.7504   89.1056   10.1350 C.ar    1  UNL1        0.0591
     24 CL         60.8476   88.0369    9.5940 Cl      1  UNL1       -0.0822
     25 C          62.5653   88.8461   11.3673 C.ar    1  UNL1        0.0292
     26 C          63.4681   89.9149   11.9082 C.ar    1  UNL1        0.0704
     27 C          64.1743   86.2700   13.9691 C.3     1  UNL1        0.0924
     28 N          63.4524   85.6064   12.8341 N.3     1  UNL1       -0.2713
     29 C          62.0815   85.9567   12.3361 C.3     1  UNL1        0.0722
     30 C          61.7564   85.0428   11.1919 C.3     1  UNL1        0.0188
     31 C          62.9264   84.1277   10.9827 C.3     1  UNL1        0.0188
     32 C          63.9746   84.4760   11.9977 C.3     1  UNL1        0.0722
@<TRIPOS>BOND
     1     1     2    2
     2     2    15    1
     3    15    16    1
     4    16    17   ar
     5    17    18    2
     6    17    19   ar
     7    19    20   ar
     8    20    21   ar
     9    21    22   ar
    10    22    23   ar
    11    23    24    1
    12    23    25   ar
    13    25    26   ar
    14     2     3   am
    15     3     4    1
    16     4     5    1
    17     5     6    1
    18     6     7    1
    19     7     9    1
    20     9    10   ar
    21    10    11   ar
    22    11    12   ar
    23    12    13   ar
    24    13    14   ar
    25     7     8    1
    26     8    27    1
    27    27    28    1
    28    28    29    1
    29    29    30    1
    30    30    31    1
    31    31    32    1
    32    26    16   ar
    33     8     3    1
    34    32    28    1
    35    26    20   ar
    36    14     9   ar
