@<TRIPOS>MOLECULE
*****
 35 38 0 0 0
SMALL
GASTEIGER

@<TRIPOS>ATOM
      1 C          59.5559   89.0426    7.2722 C.ar    1  UNL1        0.1235
      2 C          59.0719   87.6278    7.3902 C.ar    1  UNL1        0.0215
      3 C          59.7223   86.6914    8.3649 C.ar    1  UNL1        0.0202
      4 C          60.8568   87.1698    9.2216 C.ar    1  UNL1        0.0790
      5 C          61.3408   88.5846    9.1036 C.ar    1  UNL1        0.0682
      6 C          60.6904   89.5210    8.1289 C.ar    1  UNL1        0.0361
      7 N          61.5073   86.2334   10.1963 N.ar    1  UNL1       -0.2852
      8 C          62.4386   85.1092    9.8516 C.ar    1  UNL1        0.1023
      9 C          62.8476   84.4378   11.1291 C.ar    1  UNL1        0.1196
     10 N          62.1690   85.1470   12.2633 N.ar    1  UNL1       -0.2220
     11 C          61.3407   86.2568   11.6868 C.ar    1  UNL1        0.1829
     12 N          62.4754   89.0631    9.9603 N.am    1  UNL1       -0.2791
     13 C          62.2307   90.0949   11.0212 C.2     1  UNL1        0.2526
     14 O          60.8516   90.6483   11.2254 O.2     1  UNL1       -0.2697
     15 H          63.3806   88.6999    9.8263 H       1  UNL1        0.1552
     16 C          63.3653   90.5734   11.8779 C.ar    1  UNL1        0.0919
     17 C          63.6371   89.9158   13.1983 C.ar    1  UNL1        0.1066
     18 N          64.7716   90.3943   14.0550 N.ar    1  UNL1       -0.2249
     19 C          65.6343   91.5304   13.5912 C.ar    1  UNL1        0.1623
     20 N          65.3624   92.1880   12.2708 N.ar    1  UNL1       -0.2249
     21 C          64.2279   91.7095   11.4141 C.ar    1  UNL1        0.1066
     22 C          66.7688   92.0089   14.4480 C.ar    1  UNL1        0.0358
     23 C          66.5004   92.5137   15.8347 C.ar    1  UNL1        0.0030
     24 C          67.6349   92.9922   16.6913 C.ar    1  UNL1        0.0001
     25 C          69.0378   92.9659   16.1613 C.ar    1  UNL1        0.0000
     26 C          69.3063   92.4611   14.7745 C.ar    1  UNL1        0.0001
     27 C          68.1718   91.9826   13.9179 C.ar    1  UNL1        0.0030
     28 S          58.9054   89.9790    6.2975 S.O2    1  UNL1        0.0633
     29 O          57.5566   89.4590    6.6980 O.2     1  UNL1       -0.1528
     30 O          60.2542   90.4989    5.8969 O.2     1  UNL1       -0.1528
     31 N          58.2549   90.9154    5.3228 N.3     1  UNL1       -0.1555
     32 C          59.1404   92.2732    3.2924 C.3     1  UNL1        0.0206
     33 C          59.0238   92.0813    4.7755 C.3     1  UNL1        0.0958
     34 C          56.8356   90.6859    4.8953 C.3     1  UNL1        0.0958
     35 C          55.8723   91.8346    4.8452 C.3     1  UNL1        0.0206
@<TRIPOS>BOND
     1    32    33    1
     2    33    31    1
     3    31    34    1
     4    34    35    1
     5    31    28    1
     6    28    29    2
     7    28    30    2
     8    28     1    1
     9     1     2   ar
    10     2     3   ar
    11     3     4   ar
    12     4     7    1
    13     7     8   ar
    14     8     9   ar
    15     9    10   ar
    16    10    11   ar
    17     4     5   ar
    18     5    12    1
    19    12    13   am
    20    13    14    2
    21    13    16    1
    22    16    17   ar
    23    17    18   ar
    24    18    19   ar
    25    19    22    1
    26    22    23   ar
    27    23    24   ar
    28    24    25   ar
    29    25    26   ar
    30    26    27   ar
    31    19    20   ar
    32    20    21   ar
    33     5     6   ar
    34     6     1   ar
    35    11     7   ar
    36    21    16   ar
    37    27    22   ar
    38    12    15    1
@<TRIPOS>MOLECULE
*****
 35 38 0 0 0
SMALL
GASTEIGER

@<TRIPOS>ATOM
      1 C          63.2033   84.2290   13.6337 C.ar    1  UNL1        0.1235
      2 C          64.0635   84.8366   14.7017 C.ar    1  UNL1        0.0215
      3 C          64.3245   86.3137   14.7044 C.ar    1  UNL1        0.0202
      4 C          63.7253   87.1832   13.6391 C.ar    1  UNL1        0.0790
      5 C          62.8651   86.5755   12.5710 C.ar    1  UNL1        0.0682
      6 C          62.6041   85.0984   12.5683 C.ar    1  UNL1        0.0361
      7 N          63.9863   88.6603   13.6418 N.ar    1  UNL1       -0.2852
      8 C          63.5584   89.6332   12.5834 C.ar    1  UNL1        0.1023
      9 C          64.0287   90.9981   12.9908 C.ar    1  UNL1        0.1196
     10 N          64.7473   90.8687   14.3011 N.ar    1  UNL1       -0.2220
     11 C          64.7211   89.4239   14.7034 C.ar    1  UNL1        0.1829
     12 N          62.2659   87.4450   11.5056 N.am    1  UNL1       -0.2791
     13 C          61.4701   86.8281   10.3938 C.2     1  UNL1        0.2526
     14 O          61.2734   85.3418   10.3474 O.2     1  UNL1       -0.2697
     15 H          62.3950   88.4205   11.5361 H       1  UNL1        0.1552
     16 C          60.8708   87.6975    9.3284 C.ar    1  UNL1        0.0919
     17 C          61.0432   89.1863    9.3905 C.ar    1  UNL1        0.1066
     18 N          60.4439   90.0557    8.3251 N.ar    1  UNL1       -0.2249
     19 C          59.6724   89.4363    7.1977 C.ar    1  UNL1        0.1623
     20 N          59.5001   87.9475    7.1356 N.ar    1  UNL1       -0.2249
     21 C          60.0993   87.0782    8.2010 C.ar    1  UNL1        0.1066
     22 C          59.0732   90.3057    6.1322 C.ar    1  UNL1        0.0358
     23 C          57.5834   90.3793    5.9742 C.ar    1  UNL1        0.0030
     24 C          56.9842   91.2487    4.9089 C.ar    1  UNL1        0.0001
     25 C          57.8749   92.0446    4.0015 C.ar    1  UNL1        0.0000
     26 C          59.3647   91.9710    4.1595 C.ar    1  UNL1        0.0001
     27 C          59.9638   91.1016    5.2248 C.ar    1  UNL1        0.0030
     28 S          62.9423   82.7518   13.6310 S.O2    1  UNL1        0.0633
     29 O          62.4690   82.8381   12.2102 O.2     1  UNL1       -0.1528
     30 O          63.4155   82.6656   15.0517 O.2     1  UNL1       -0.1528
     31 N          62.6813   81.2747   13.6283 N.3     1  UNL1       -0.1555
     32 C          62.7890   79.6632   11.5933 C.3     1  UNL1        0.0206
     33 C          63.4706   80.3753   12.7239 C.3     1  UNL1        0.0958
     34 C          61.6309   80.6971   14.5299 C.3     1  UNL1        0.0958
     35 C          60.1916   80.7075   14.1077 C.3     1  UNL1        0.0206
@<TRIPOS>BOND
     1    32    33    1
     2    33    31    1
     3    31    34    1
     4    34    35    1
     5    31    28    1
     6    28    29    2
     7    28    30    2
     8    28     1    1
     9     1     2   ar
    10     2     3   ar
    11     3     4   ar
    12     4     7    1
    13     7     8   ar
    14     8     9   ar
    15     9    10   ar
    16    10    11   ar
    17     4     5   ar
    18     5    12    1
    19    12    13   am
    20    13    14    2
    21    13    16    1
    22    16    17   ar
    23    17    18   ar
    24    18    19   ar
    25    19    22    1
    26    22    23   ar
    27    23    24   ar
    28    24    25   ar
    29    25    26   ar
    30    26    27   ar
    31    19    20   ar
    32    20    21   ar
    33     5     6   ar
    34     6     1   ar
    35    11     7   ar
    36    21    16   ar
    37    27    22   ar
    38    12    15    1
@<TRIPOS>MOLECULE
*****
 35 38 0 0 0
SMALL
GASTEIGER

@<TRIPOS>ATOM
      1 C          64.7873   91.1135   13.8686 C.ar    1  UNL1        0.1235
      2 C          64.3208   91.5559   15.2238 C.ar    1  UNL1        0.0215
      3 C          63.7679   90.5518   16.1913 C.ar    1  UNL1        0.0202
      4 C          63.6815   89.1054   15.8036 C.ar    1  UNL1        0.0790
      5 C          64.1481   88.6630   14.4484 C.ar    1  UNL1        0.0682
      6 C          64.7010   89.6671   13.4809 C.ar    1  UNL1        0.0361
      7 N          63.1287   88.1013   16.7711 N.ar    1  UNL1       -0.2852
      8 C          63.1417   88.2179   18.2665 C.ar    1  UNL1        0.1023
      9 C          62.4867   86.9929   18.8328 C.ar    1  UNL1        0.1196
     10 N          62.0689   86.1192   17.6873 N.ar    1  UNL1       -0.2220
     11 C          62.4657   86.8042   16.4132 C.ar    1  UNL1        0.1829
     12 N          64.0618   87.2165   14.0607 N.am    1  UNL1       -0.2791
     13 C          63.2069   86.8008   12.9005 C.2     1  UNL1        0.2526
     14 O          62.4382   87.8314   12.1279 O.2     1  UNL1       -0.2697
     15 H          64.5663   86.5400   14.5677 H       1  UNL1        0.1552
     16 C          63.1206   85.3543   12.5127 C.ar    1  UNL1        0.0919
     17 C          63.0207   84.9702   11.0662 C.ar    1  UNL1        0.1066
     18 N          62.9344   83.5238   10.6786 N.ar    1  UNL1       -0.2249
     19 C          62.9480   82.4614   11.7374 C.ar    1  UNL1        0.1623
     20 N          63.0478   82.8454   13.1839 N.ar    1  UNL1       -0.2249
     21 C          63.1341   84.2919   13.5716 C.ar    1  UNL1        0.1066
     22 C          62.8617   81.0149   11.3497 C.ar    1  UNL1        0.0358
     23 C          63.0281   80.6119    9.9145 C.ar    1  UNL1        0.0030
     24 C          62.9418   79.1655    9.5268 C.ar    1  UNL1        0.0001
     25 C          62.6890   78.1220   10.5744 C.ar    1  UNL1        0.0000
     26 C          62.5226   78.5250   12.0096 C.ar    1  UNL1        0.0001
     27 C          62.6089   79.9714   12.3972 C.ar    1  UNL1        0.0030
     28 S          65.3402   92.1176   12.9010 S.O2    1  UNL1        0.0633
     29 O          64.4146   91.6035   11.8385 O.2     1  UNL1       -0.1528
     30 O          66.2658   92.6318   13.9635 O.2     1  UNL1       -0.1528
     31 N          65.8931   93.1217   11.9335 N.3     1  UNL1       -0.1555
     32 C          66.2180   95.6441   11.4027 C.3     1  UNL1        0.0206
     33 C          66.1967   94.5171   12.3924 C.3     1  UNL1        0.0958
     34 C          66.1425   92.7304   10.5071 C.3     1  UNL1        0.0958
     35 C          67.5263   92.3604   10.0618 C.3     1  UNL1        0.0206
@<TRIPOS>BOND
     1    32    33    1
     2    33    31    1
     3    31    34    1
     4    34    35    1
     5    31    28    1
     6    28    29    2
     7    28    30    2
     8    28     1    1
     9     1     2   ar
    10     2     3   ar
    11     3     4   ar
    12     4     7    1
    13     7     8   ar
    14     8     9   ar
    15     9    10   ar
    16    10    11   ar
    17     4     5   ar
    18     5    12    1
    19    12    13   am
    20    13    14    2
    21    13    16    1
    22    16    17   ar
    23    17    18   ar
    24    18    19   ar
    25    19    22    1
    26    22    23   ar
    27    23    24   ar
    28    24    25   ar
    29    25    26   ar
    30    26    27   ar
    31    19    20   ar
    32    20    21   ar
    33     5     6   ar
    34     6     1   ar
    35    11     7   ar
    36    21    16   ar
    37    27    22   ar
    38    12    15    1
@<TRIPOS>MOLECULE
*****
 35 38 0 0 0
SMALL
GASTEIGER

@<TRIPOS>ATOM
      1 C          64.7593   91.3834   13.7544 C.ar    1  UNL1        0.1235
      2 C          64.4303   91.6894   15.1855 C.ar    1  UNL1        0.0215
      3 C          63.7983   90.6397   16.0507 C.ar    1  UNL1        0.0202
      4 C          63.4952   89.2840   15.4848 C.ar    1  UNL1        0.0790
      5 C          63.8242   88.9781   14.0537 C.ar    1  UNL1        0.0682
      6 C          64.4562   90.0278   13.1885 C.ar    1  UNL1        0.0361
      7 N          62.8631   88.2343   16.3501 N.ar    1  UNL1       -0.2852
      8 C          63.5277   87.5060   17.4805 C.ar    1  UNL1        0.1023
      9 C          62.5308   86.5502   18.0659 C.ar    1  UNL1        0.1196
     10 N          61.2501   86.6878   17.2972 N.ar    1  UNL1       -0.2220
     11 C          61.4555   87.7286   16.2368 C.ar    1  UNL1        0.1829
     12 N          63.5211   87.6223   13.4878 N.am    1  UNL1       -0.2791
     13 C          64.2792   86.4215   13.9706 C.2     1  UNL1        0.2526
     14 O          65.3405   86.5763   15.0193 O.2     1  UNL1       -0.2697
     15 H          62.8245   87.5207   12.7995 H       1  UNL1        0.1552
     16 C          63.9761   85.0657   13.4046 C.ar    1  UNL1        0.0919
     17 C          64.5905   83.8425   14.0179 C.ar    1  UNL1        0.1066
     18 N          64.2874   82.4869   13.4520 N.ar    1  UNL1       -0.2249
     19 C          63.3699   82.3545   12.2727 C.ar    1  UNL1        0.1623
     20 N          62.7555   83.5777   11.6594 N.ar    1  UNL1       -0.2249
     21 C          63.0586   84.9333   12.2254 C.ar    1  UNL1        0.1066
     22 C          63.0668   80.9987   11.7068 C.ar    1  UNL1        0.0358
     23 C          62.6882   79.8718   12.6214 C.ar    1  UNL1        0.0030
     24 C          62.3851   78.5161   12.0554 C.ar    1  UNL1        0.0001
     25 C          62.4607   78.2875   10.5749 C.ar    1  UNL1        0.0000
     26 C          62.8394   79.4144    9.6603 C.ar    1  UNL1        0.0001
     27 C          63.1424   80.7701   10.2263 C.ar    1  UNL1        0.0030
     28 S          65.3914   92.4331   12.8891 S.O2    1  UNL1        0.0633
     29 O          66.1124   92.9836   14.0837 O.2     1  UNL1       -0.1528
     30 O          64.6703   91.8826   11.6945 O.2     1  UNL1       -0.1528
     31 N          66.0234   93.4828   12.0239 N.3     1  UNL1       -0.1555
     32 C          67.6571   92.3773   10.3331 C.3     1  UNL1        0.0206
     33 C          66.4071   93.1586   10.6105 C.3     1  UNL1        0.0958
     34 C          66.2719   94.8568   12.5720 C.3     1  UNL1        0.0958
     35 C          66.2134   96.0487   11.6633 C.3     1  UNL1        0.0206
@<TRIPOS>BOND
     1    32    33    1
     2    33    31    1
     3    31    34    1
     4    34    35    1
     5    31    28    1
     6    28    29    2
     7    28    30    2
     8    28     1    1
     9     1     2   ar
    10     2     3   ar
    11     3     4   ar
    12     4     7    1
    13     7     8   ar
    14     8     9   ar
    15     9    10   ar
    16    10    11   ar
    17     4     5   ar
    18     5    12    1
    19    12    13   am
    20    13    14    2
    21    13    16    1
    22    16    17   ar
    23    17    18   ar
    24    18    19   ar
    25    19    22    1
    26    22    23   ar
    27    23    24   ar
    28    24    25   ar
    29    25    26   ar
    30    26    27   ar
    31    19    20   ar
    32    20    21   ar
    33     5     6   ar
    34     6     1   ar
    35    11     7   ar
    36    21    16   ar
    37    27    22   ar
    38    12    15    1
@<TRIPOS>MOLECULE
*****
 35 38 0 0 0
SMALL
GASTEIGER

@<TRIPOS>ATOM
      1 C          63.8547   90.5768   12.9247 C.ar    1  UNL1        0.1235
      2 C          62.9327   91.5146   12.2034 C.ar    1  UNL1        0.0215
      3 C          61.9433   90.9786   11.2115 C.ar    1  UNL1        0.0202
      4 C          61.8759   89.5048   10.9410 C.ar    1  UNL1        0.0790
      5 C          62.7979   88.5670   11.6623 C.ar    1  UNL1        0.0682
      6 C          63.7873   89.1030   12.6541 C.ar    1  UNL1        0.0361
      7 N          60.8865   88.9688    9.9491 N.ar    1  UNL1       -0.2852
      8 C          60.1292   87.6795   10.0679 C.ar    1  UNL1        0.1023
      9 C          59.2553   87.5418    8.8566 C.ar    1  UNL1        0.1196
     10 N          59.4726   88.7461    7.9890 N.ar    1  UNL1       -0.2220
     11 C          60.4807   89.6280    8.6643 C.ar    1  UNL1        0.1829
     12 N          62.7306   87.0931   11.3917 N.am    1  UNL1       -0.2791
     13 C          63.1276   86.1159   12.4582 C.2     1  UNL1        0.2526
     14 O          63.5919   86.6125   13.7953 O.2     1  UNL1       -0.2697
     15 H          62.4258   86.7671   10.5142 H       1  UNL1        0.1552
     16 C          63.0602   84.6420   12.1877 C.ar    1  UNL1        0.0919
     17 C          62.6459   83.6977   13.2770 C.ar    1  UNL1        0.1066
     18 N          62.5785   82.2239   13.0064 N.ar    1  UNL1       -0.2249
     19 C          62.9255   81.6943   11.6466 C.ar    1  UNL1        0.1623
     20 N          63.3398   82.6386   10.5573 N.ar    1  UNL1       -0.2249
     21 C          63.4072   84.1124   10.8279 C.ar    1  UNL1        0.1066
     22 C          62.8581   80.2204   11.3760 C.ar    1  UNL1        0.0358
     23 C          62.6341   79.2599   12.5062 C.ar    1  UNL1        0.0030
     24 C          62.5667   77.7861   12.2356 C.ar    1  UNL1        0.0001
     25 C          62.7234   77.2727   10.8349 C.ar    1  UNL1        0.0000
     26 C          62.9475   78.2332    9.7048 C.ar    1  UNL1        0.0001
     27 C          63.0149   79.7071    9.9754 C.ar    1  UNL1        0.0030
     28 S          64.8441   91.1128   13.9165 S.O2    1  UNL1        0.0633
     29 O          64.7786   92.4576   13.2552 O.2     1  UNL1       -0.1528
     30 O          64.9097   89.7681   14.5779 O.2     1  UNL1       -0.1528
     31 N          65.8336   91.6488   14.9084 N.3     1  UNL1       -0.1555
     32 C          68.2857   92.3804   15.3574 C.3     1  UNL1        0.0206
     33 C          67.3043   91.4808   14.6663 C.3     1  UNL1        0.0958
     34 C          65.3522   92.3528   16.1423 C.3     1  UNL1        0.0958
     35 C          64.0725   91.9262   16.7982 C.3     1  UNL1        0.0206
@<TRIPOS>BOND
     1    32    33    1
     2    33    31    1
     3    31    34    1
     4    34    35    1
     5    31    28    1
     6    28    29    2
     7    28    30    2
     8    28     1    1
     9     1     2   ar
    10     2     3   ar
    11     3     4   ar
    12     4     7    1
    13     7     8   ar
    14     8     9   ar
    15     9    10   ar
    16    10    11   ar
    17     4     5   ar
    18     5    12    1
    19    12    13   am
    20    13    14    2
    21    13    16    1
    22    16    17   ar
    23    17    18   ar
    24    18    19   ar
    25    19    22    1
    26    22    23   ar
    27    23    24   ar
    28    24    25   ar
    29    25    26   ar
    30    26    27   ar
    31    19    20   ar
    32    20    21   ar
    33     5     6   ar
    34     6     1   ar
    35    11     7   ar
    36    21    16   ar
    37    27    22   ar
    38    12    15    1
@<TRIPOS>MOLECULE
*****
 35 38 0 0 0
SMALL
GASTEIGER

@<TRIPOS>ATOM
      1 C          60.0423   88.3380    8.1842 C.ar    1  UNL1        0.1235
      2 C          59.6652   86.8956    8.3488 C.ar    1  UNL1        0.0215
      3 C          60.3789   86.0441    9.3566 C.ar    1  UNL1        0.0202
      4 C          61.4697   86.6350   10.1998 C.ar    1  UNL1        0.0790
      5 C          61.8468   88.0774   10.0351 C.ar    1  UNL1        0.0682
      6 C          61.1331   88.9289    9.0273 C.ar    1  UNL1        0.0361
      7 N          62.1834   85.7835   11.2075 N.ar    1  UNL1       -0.2852
      8 C          62.8817   86.2751   12.4407 C.ar    1  UNL1        0.1023
      9 C          63.4540   85.0863   13.1544 C.ar    1  UNL1        0.1196
     10 N          63.1093   83.8600   12.3624 N.ar    1  UNL1       -0.2220
     11 C          62.3240   84.2909   11.1592 C.ar    1  UNL1        0.1829
     12 N          62.9376   88.6684   10.8783 N.am    1  UNL1       -0.2791
     13 C          62.7960   90.0597   11.4206 C.2     1  UNL1        0.2526
     14 O          61.5635   90.8601   11.1199 O.2     1  UNL1       -0.2697
     15 H          63.7465   88.1431   11.0757 H       1  UNL1        0.1552
     16 C          63.8868   90.6507   12.2638 C.ar    1  UNL1        0.0919
     17 C          64.2301   90.0331   13.5869 C.ar    1  UNL1        0.1066
     18 N          65.3209   90.6241   14.4300 N.ar    1  UNL1       -0.2249
     19 C          66.0684   91.8327   13.9500 C.ar    1  UNL1        0.1623
     20 N          65.7251   92.4504   12.6269 N.ar    1  UNL1       -0.2249
     21 C          64.6343   91.8594   11.7838 C.ar    1  UNL1        0.1066
     22 C          67.1592   92.4237   14.7931 C.ar    1  UNL1        0.0358
     23 C          68.0533   91.5282   15.5985 C.ar    1  UNL1        0.0030
     24 C          69.1441   92.1192   16.4416 C.ar    1  UNL1        0.0001
     25 C          69.3408   93.6058   16.4794 C.ar    1  UNL1        0.0000
     26 C          68.4467   94.5013   15.6740 C.ar    1  UNL1        0.0001
     27 C          67.3560   93.9103   14.8309 C.ar    1  UNL1        0.0030
     28 S          59.3286   89.1895    7.1764 S.O2    1  UNL1        0.0633
     29 O          59.0056   87.9658    6.3713 O.2     1  UNL1       -0.1528
     30 O          59.6517   90.4132    7.9816 O.2     1  UNL1       -0.1528
     31 N          58.6150   90.0410    6.1686 N.3     1  UNL1       -0.1555
     32 C          56.3814   90.9248    5.1788 C.3     1  UNL1        0.0206
     33 C          57.1300   89.9157    5.9981 C.3     1  UNL1        0.0958
     34 C          59.3862   91.0177    5.3314 C.3     1  UNL1        0.0958
     35 C          58.6584   91.9850    4.4456 C.3     1  UNL1        0.0206
@<TRIPOS>BOND
     1    32    33    1
     2    33    31    1
     3    31    34    1
     4    34    35    1
     5    31    28    1
     6    28    29    2
     7    28    30    2
     8    28     1    1
     9     1     2   ar
    10     2     3   ar
    11     3     4   ar
    12     4     7    1
    13     7     8   ar
    14     8     9   ar
    15     9    10   ar
    16    10    11   ar
    17     4     5   ar
    18     5    12    1
    19    12    13   am
    20    13    14    2
    21    13    16    1
    22    16    17   ar
    23    17    18   ar
    24    18    19   ar
    25    19    22    1
    26    22    23   ar
    27    23    24   ar
    28    24    25   ar
    29    25    26   ar
    30    26    27   ar
    31    19    20   ar
    32    20    21   ar
    33     5     6   ar
    34     6     1   ar
    35    11     7   ar
    36    21    16   ar
    37    27    22   ar
    38    12    15    1
