@<TRIPOS>MOLECULE
*****
 46 51 0 0 0
SMALL
GASTEIGER

@<TRIPOS>ATOM
      1 C          59.4372   94.1012   -2.0364 C.3     1  UNL1        0.1607
      2 C          58.8477   93.6808   -0.7227 C.2     1  UNL1        0.2689
      3 O          57.4067   93.8012   -0.3240 O.2     1  UNL1       -0.2708
      4 N          59.9523   93.1186    0.1222 N.am    1  UNL1       -0.1349
      5 C          61.2244   93.1917   -0.6692 C.ar    1  UNL1        0.0746
      6 C          62.6315   92.7836   -0.3475 C.ar    1  UNL1        0.0171
      7 C          63.7202   92.9830   -1.3598 C.ar    1  UNL1        0.0116
      8 C          63.4019   93.5903   -2.6939 C.ar    1  UNL1        0.0683
      9 C          61.9948   93.9983   -3.0157 C.ar    1  UNL1        0.0093
     10 C          60.9061   93.7990   -2.0033 C.ar    1  UNL1        0.0191
     11 C          60.2953   95.9844   -3.6071 C.ar    1  UNL1        0.2234
     12 N          60.5906   96.4902   -4.9881 N.ar    1  UNL1       -0.2003
     13 C          60.3230   95.6186   -6.1792 C.ar    1  UNL1        0.1414
     14 CL         60.6183   96.1244   -7.5601 Cl      1  UNL1       -0.0612
     15 C          59.7602   94.2412   -5.9894 C.ar    1  UNL1        0.0308
     16 C          59.4649   93.7354   -4.6085 C.ar    1  UNL1        0.0048
     17 C          59.7325   94.6070   -3.4173 C.ar    1  UNL1        0.0562
     18 O          60.5628   96.8560   -2.4160 O.3     1  UNL1       -0.4604
     19 C          60.6622   96.7708    0.1788 C.3     1  UNL1        0.0512
     20 C          61.1128   96.2559   -1.1560 C.3     1  UNL1        0.2072
     21 N          58.0300   94.5093   -2.3581 N.3     1  UNL1       -0.2582
     22 C          57.4260   95.7094   -1.6910 C.3     1  UNL1        0.0946
     23 C          56.0189   96.1174   -2.0127 C.3     1  UNL1        0.1081
     24 N          55.2158   95.3253   -3.0014 N.pl3   1  UNL1       -0.3046
     25 C          55.8198   94.1252   -3.6685 C.3     1  UNL1        0.1081
     26 C          57.2269   93.7172   -3.3468 C.3     1  UNL1        0.0946
     27 C          53.8086   95.7334   -3.3232 C.ar    1  UNL1        0.0507
     28 C          53.3502   95.7842   -4.7505 C.ar    1  UNL1        0.0352
     29 C          51.9431   96.1922   -5.0723 C.ar    1  UNL1        0.0997
     30 N          50.9943   96.5494   -3.9667 N.ar    1  UNL1       -0.2481
     31 C          51.4527   96.4985   -2.5393 C.ar    1  UNL1        0.0606
     32 C          50.5040   96.8556   -1.4337 C.3     1  UNL1        0.0521
     33 C          52.8599   96.0905   -2.2176 C.ar    1  UNL1        0.0293
     34 S          59.8098   92.5782    1.5142 S.O2    1  UNL1        0.0990
     35 O          60.0988   93.9400    2.0725 O.2     1  UNL1       -0.1479
     36 O          59.5208   91.2163    0.9560 O.2     1  UNL1       -0.1479
     37 C          59.6673   92.0378    2.9062 C.ar    1  UNL1        0.2068
     38 C          58.3062   91.8980    3.5209 C.ar    1  UNL1        0.0430
     39 C          58.1637   91.3576    4.9128 C.ar    1  UNL1        0.0415
     40 C          59.3824   90.9568    5.6902 C.ar    1  UNL1        0.1579
     41 C          60.7435   91.0966    5.0755 C.ar    1  UNL1        0.1372
     42 N          60.8860   91.6370    3.6835 N.ar    1  UNL1       -0.2210
     43 O          59.2399   90.4164    7.0821 O.3     1  UNL1       -0.4699
     44 C          59.0435   88.9453    7.2992 C.3     1  UNL1        0.2525
     45 C          64.4907   93.7896   -3.7063 C.1     1  UNL1        0.1004
     46 N          65.5795   93.9888   -4.7186 N.1     1  UNL1       -0.1908
@<TRIPOS>BOND
     1    19    20    1
     2    20    18    1
     3    18    11    1
     4    11    12   ar
     5    12    13   ar
     6    13    14    1
     7    13    15   ar
     8    15    16   ar
     9    16    17   ar
    10    17     1    1
    11     1    21    1
    12    21    22    1
    13    22    23    1
    14    23    24    1
    15    24    27    1
    16    27    28   ar
    17    28    29   ar
    18    29    30   ar
    19    30    31   ar
    20    31    32    1
    21    31    33   ar
    22    24    25    1
    23    25    26    1
    24     1     2    1
    25     2     3    2
    26     2     4   am
    27     4    34    1
    28    34    35    2
    29    34    36    2
    30    34    37    1
    31    37    38   ar
    32    38    39   ar
    33    39    40   ar
    34    40    43    1
    35    43    44    1
    36    40    41   ar
    37    41    42   ar
    38     4     5    1
    39     5     6   ar
    40     6     7   ar
    41     7     8   ar
    42     8    45    1
    43    45    46    3
    44     8     9   ar
    45     9    10   ar
    46    17    11   ar
    47    10     1    1
    48    26    21    1
    49    42    37   ar
    50    10     5   ar
    51    33    27   ar
@<TRIPOS>MOLECULE
*****
 46 51 0 0 0
SMALL
GASTEIGER

@<TRIPOS>ATOM
      1 C          60.8816   94.6866   -1.3369 C.3     1  UNL1        0.1607
      2 C          59.4182   94.7376   -1.6621 C.2     1  UNL1        0.2689
      3 O          58.3073   94.1899   -0.8159 O.2     1  UNL1       -0.2708
      4 N          59.2607   95.4325   -2.9821 N.am    1  UNL1       -0.1349
      5 C          60.6267   95.8109   -3.4727 C.ar    1  UNL1        0.0746
      6 C          61.0878   96.5157   -4.7139 C.ar    1  UNL1        0.0171
      7 C          62.5507   96.7596   -4.9383 C.ar    1  UNL1        0.0116
      8 C          63.5525   96.2986   -3.9215 C.ar    1  UNL1        0.0683
      9 C          63.0914   95.5938   -2.6803 C.ar    1  UNL1        0.0093
     10 C          61.6285   95.3500   -2.4559 C.ar    1  UNL1        0.0191
     11 C          62.8660   95.5628    0.0929 C.ar    1  UNL1        0.2234
     12 N          64.2331   95.3644    0.6776 N.ar    1  UNL1       -0.2003
     13 C          64.9827   94.0916    0.4172 C.ar    1  UNL1        0.1414
     14 CL         66.3498   93.8932    1.0019 Cl      1  UNL1       -0.0612
     15 C          64.3654   93.0170   -0.4279 C.ar    1  UNL1        0.0308
     16 C          62.9983   93.2154   -1.0126 C.ar    1  UNL1        0.0048
     17 C          62.2486   94.4883   -0.7522 C.ar    1  UNL1        0.0562
     18 O          62.1164   96.8356    0.3533 O.3     1  UNL1       -0.4604
     19 C          61.2609   96.5466    2.7894 C.3     1  UNL1        0.0512
     20 C          60.9921   96.8541    1.3461 C.3     1  UNL1        0.2072
     21 N          60.4205   93.9818   -0.0957 N.3     1  UNL1       -0.2582
     22 C          60.7955   92.5480    0.1359 C.3     1  UNL1        0.0946
     23 C          60.3344   91.8432    1.3770 C.3     1  UNL1        0.1081
     24 N          59.4983   92.5721    2.3867 N.pl3   1  UNL1       -0.3046
     25 C          59.1232   94.0059    2.1551 C.3     1  UNL1        0.1081
     26 C          59.5843   94.7107    0.9140 C.3     1  UNL1        0.0946
     27 C          59.0371   91.8673    3.6279 C.ar    1  UNL1        0.0507
     28 C          57.5749   91.8078    3.9572 C.ar    1  UNL1        0.0352
     29 C          57.1137   91.1030    5.1984 C.ar    1  UNL1        0.0997
     30 N          58.1148   90.4576    6.1103 N.ar    1  UNL1       -0.2481
     31 C          59.5770   90.5172    5.7810 C.ar    1  UNL1        0.0606
     32 C          60.5780   89.8719    6.6929 C.3     1  UNL1        0.0521
     33 C          60.0381   91.2220    4.5398 C.ar    1  UNL1        0.0293
     34 S          57.9646   95.7016   -3.6876 S.O2    1  UNL1        0.0990
     35 O          57.2546   94.7902   -2.7312 O.2     1  UNL1       -0.1479
     36 O          58.6746   96.6132   -4.6442 O.2     1  UNL1       -0.1479
     37 C          56.6686   95.9709   -4.3933 C.ar    1  UNL1        0.2068
     38 C          55.4706   96.4262   -3.6138 C.ar    1  UNL1        0.0430
     39 C          54.1747   96.6954   -4.3194 C.ar    1  UNL1        0.0415
     40 C          54.0766   96.5093   -5.8047 C.ar    1  UNL1        0.1579
     41 C          55.2746   96.0540   -6.5841 C.ar    1  UNL1        0.1372
     42 N          56.5705   95.7848   -5.8784 N.ar    1  UNL1       -0.2210
     43 O          52.7807   96.7785   -6.5102 O.3     1  UNL1       -0.4699
     44 C          51.4862   96.7023   -5.7563 C.3     1  UNL1        0.2525
     45 C          65.0155   96.5425   -4.1460 C.1     1  UNL1        0.1004
     46 N          66.4784   96.7864   -4.3704 N.1     1  UNL1       -0.1908
@<TRIPOS>BOND
     1    19    20    1
     2    20    18    1
     3    18    11    1
     4    11    12   ar
     5    12    13   ar
     6    13    14    1
     7    13    15   ar
     8    15    16   ar
     9    16    17   ar
    10    17     1    1
    11     1    21    1
    12    21    22    1
    13    22    23    1
    14    23    24    1
    15    24    27    1
    16    27    28   ar
    17    28    29   ar
    18    29    30   ar
    19    30    31   ar
    20    31    32    1
    21    31    33   ar
    22    24    25    1
    23    25    26    1
    24     1     2    1
    25     2     3    2
    26     2     4   am
    27     4    34    1
    28    34    35    2
    29    34    36    2
    30    34    37    1
    31    37    38   ar
    32    38    39   ar
    33    39    40   ar
    34    40    43    1
    35    43    44    1
    36    40    41   ar
    37    41    42   ar
    38     4     5    1
    39     5     6   ar
    40     6     7   ar
    41     7     8   ar
    42     8    45    1
    43    45    46    3
    44     8     9   ar
    45     9    10   ar
    46    17    11   ar
    47    10     1    1
    48    26    21    1
    49    42    37   ar
    50    10     5   ar
    51    33    27   ar
