@<TRIPOS>MOLECULE
*****
 27 30 0 0 0
SMALL
GASTEIGER

@<TRIPOS>ATOM
      1 C          63.2139   83.9475   14.2171 C.ar    1  UNL1        0.0070
      2 C          64.0727   84.3028   15.3944 C.ar    1  UNL1       -0.0017
      3 C          64.5681   85.7083   15.5644 C.ar    1  UNL1       -0.0002
      4 C          64.2049   86.7586   14.5569 C.ar    1  UNL1        0.0001
      5 C          64.7004   88.1642   14.7269 C.ar    1  UNL1        0.0031
      6 C          64.3371   89.2144   13.7195 C.ar    1  UNL1        0.0362
      7 C          63.4783   88.8591   12.5420 C.ar    1  UNL1        0.0031
      8 C          62.9828   87.4536   12.3721 C.ar    1  UNL1        0.0001
      9 C          63.3461   86.4033   13.3795 C.ar    1  UNL1       -0.0002
     10 C          62.8506   84.9978   13.2096 C.ar    1  UNL1       -0.0017
     11 C          64.8326   90.6200   13.8894 C.ar    1  UNL1        0.1664
     12 C          64.9005   91.3809   15.1803 C.ar    1  UNL1        0.1396
     13 N          65.4571   92.7426   14.8870 N.ar    1  UNL1       -0.2026
     14 C          65.7332   92.8232   13.4148 C.ar    1  UNL1        0.2851
     15 O          65.3473   91.5113   12.7983 O.2     1  UNL1       -0.4311
     16 C          62.7183   82.5419   14.0471 C.3     1  UNL1        0.1426
     17 O          62.1244   82.5848   15.4238 O.3     1  UNL1       -0.3770
     18 H          62.5648   83.2745   15.9446 H       1  UNL1        0.2112
     19 C          63.3123   82.4990   12.6704 C.ar    1  UNL1        0.1019
     20 C          62.5576   82.2930   11.3905 C.ar    1  UNL1        0.1404
     21 N          63.5442   82.3213   10.2609 N.ar    1  UNL1       -0.1276
     22 N          64.9087   82.5448   10.8427 N.ar    1  UNL1       -0.0674
     23 N          64.7654   82.6546   12.3318 N.ar    1  UNL1       -0.2579
     24 H          65.4966   82.8028   12.9741 H       1  UNL1        0.1904
     25 C          63.1866   80.0367   13.5427 C.3     1  UNL1        0.0031
     26 C          62.2228   81.1364   13.8771 C.3     1  UNL1        0.0340
     27 C          60.7635   80.8305   14.0415 C.3     1  UNL1        0.0031
@<TRIPOS>BOND
     1    25    26    1
     2    26    27    1
     3    26    16    1
     4    16    17    1
     5    16     1    1
     6     1     2   ar
     7     2     3   ar
     8     3     4   ar
     9     4     5   ar
    10     5     6   ar
    11     6    11    1
    12    11    12   ar
    13    12    13   ar
    14    13    14   ar
    15    14    15   ar
    16     6     7   ar
    17     7     8   ar
    18     8     9   ar
    19     9    10   ar
    20    16    19    1
    21    19    20   ar
    22    20    21   ar
    23    21    22   ar
    24    22    23   ar
    25    10     1   ar
    26    23    19   ar
    27     9     4   ar
    28    15    11   ar
    29    17    18    1
    30    23    24    1
@<TRIPOS>MOLECULE
*****
 27 30 0 0 0
SMALL
GASTEIGER

@<TRIPOS>ATOM
      1 C          65.0249   91.1802   13.6419 C.ar    1  UNL1        0.0070
      2 C          64.7263   89.8040   14.1585 C.ar    1  UNL1       -0.0017
      3 C          63.8284   88.8891   13.3796 C.ar    1  UNL1       -0.0002
      4 C          63.2291   89.3504   12.0842 C.ar    1  UNL1        0.0001
      5 C          62.3311   88.4354   11.3054 C.ar    1  UNL1        0.0031
      6 C          61.7318   88.8968   10.0100 C.ar    1  UNL1        0.0362
      7 C          62.0305   90.2730    9.4934 C.ar    1  UNL1        0.0031
      8 C          62.9284   91.1879   10.2723 C.ar    1  UNL1        0.0001
      9 C          63.5277   90.7266   11.5677 C.ar    1  UNL1       -0.0002
     10 C          64.4256   91.6415   12.3465 C.ar    1  UNL1       -0.0017
     11 C          60.8339   87.9819    9.2311 C.ar    1  UNL1        0.1664
     12 C          61.0059   86.4999    9.0756 C.ar    1  UNL1        0.1396
     13 N          59.8846   85.9904    8.2194 N.ar    1  UNL1       -0.2026
     14 C          59.0196   87.1576    7.8457 C.ar    1  UNL1        0.2851
     15 O          59.6063   88.3883    8.4710 O.2     1  UNL1       -0.4311
     16 C          65.9229   92.0951   14.4208 C.3     1  UNL1        0.1426
     17 O          64.9385   92.0979   15.5526 O.3     1  UNL1       -0.3770
     18 H          64.0630   91.8454   15.2201 H       1  UNL1        0.2112
     19 C          66.9073   92.0924   13.2890 C.ar    1  UNL1        0.1019
     20 C          66.6877   92.6836   11.9281 C.ar    1  UNL1        0.1404
     21 N          67.9289   92.4545   11.1174 N.ar    1  UNL1       -0.1276
     22 N          68.9155   91.7217   11.9774 N.ar    1  UNL1       -0.0674
     23 N          68.2842   91.4978   13.3195 N.ar    1  UNL1       -0.2579
     24 H          68.7004   91.0409   14.0858 H       1  UNL1        0.1904
     25 C          67.1597   94.3675   14.6587 C.3     1  UNL1        0.0031
     26 C          66.8209   93.0101   15.1996 C.3     1  UNL1        0.0340
     27 C          67.3800   92.5675   16.5193 C.3     1  UNL1        0.0031
@<TRIPOS>BOND
     1    25    26    1
     2    26    27    1
     3    26    16    1
     4    16    17    1
     5    16     1    1
     6     1     2   ar
     7     2     3   ar
     8     3     4   ar
     9     4     5   ar
    10     5     6   ar
    11     6    11    1
    12    11    12   ar
    13    12    13   ar
    14    13    14   ar
    15    14    15   ar
    16     6     7   ar
    17     7     8   ar
    18     8     9   ar
    19     9    10   ar
    20    16    19    1
    21    19    20   ar
    22    20    21   ar
    23    21    22   ar
    24    22    23   ar
    25    10     1   ar
    26    23    19   ar
    27     9     4   ar
    28    15    11   ar
    29    17    18    1
    30    23    24    1
@<TRIPOS>MOLECULE
*****
 27 30 0 0 0
SMALL
GASTEIGER

@<TRIPOS>ATOM
      1 C          61.6878   89.4095   10.5010 C.ar    1  UNL1        0.0070
      2 C          61.5912   88.9213   11.9161 C.ar    1  UNL1       -0.0017
      3 C          62.5219   89.4617   12.9610 C.ar    1  UNL1       -0.0002
      4 C          63.5490   90.4903   12.5908 C.ar    1  UNL1        0.0001
      5 C          64.4797   91.0307   13.6358 C.ar    1  UNL1        0.0031
      6 C          65.5069   92.0592   13.2657 C.ar    1  UNL1        0.0362
      7 C          65.6034   92.5473   11.8506 C.ar    1  UNL1        0.0031
      8 C          64.6728   92.0069   10.8057 C.ar    1  UNL1        0.0001
      9 C          63.6456   90.9784   11.1758 C.ar    1  UNL1       -0.0002
     10 C          62.7150   90.4380   10.1309 C.ar    1  UNL1       -0.0017
     11 C          66.4375   92.5996   14.3106 C.ar    1  UNL1        0.1664
     12 C          66.1788   92.6365   15.7877 C.ar    1  UNL1        0.1396
     13 N          67.3716   93.2577   16.4519 N.ar    1  UNL1       -0.2026
     14 C          68.3676   93.6048   15.3853 C.ar    1  UNL1        0.2851
     15 O          67.7903   93.1981   14.0619 O.2     1  UNL1       -0.4311
     16 C          60.7572   88.8690    9.4560 C.3     1  UNL1        0.1426
     17 O          60.2121   90.2478    9.2284 O.3     1  UNL1       -0.3770
     18 H          60.3892   90.7982   10.0073 H       1  UNL1        0.2112
     19 C          61.3023   87.4903    9.6836 C.ar    1  UNL1        0.1019
     20 C          62.3701   86.8192    8.8715 C.ar    1  UNL1        0.1404
     21 N          62.6031   85.4546    9.4493 N.ar    1  UNL1       -0.1276
     22 N          61.6793   85.2824   10.6186 N.ar    1  UNL1       -0.0674
     23 N          60.8754   86.5405   10.7634 N.ar    1  UNL1       -0.2579
     24 H          60.1882   86.7126   11.4470 H       1  UNL1        0.1904
     25 C          59.5922   89.0983    7.1452 C.3     1  UNL1        0.0031
     26 C          59.8266   88.3286    8.4111 C.3     1  UNL1        0.0340
     27 C          59.1304   87.0184    8.6321 C.3     1  UNL1        0.0031
@<TRIPOS>BOND
     1    25    26    1
     2    26    27    1
     3    26    16    1
     4    16    17    1
     5    16     1    1
     6     1     2   ar
     7     2     3   ar
     8     3     4   ar
     9     4     5   ar
    10     5     6   ar
    11     6    11    1
    12    11    12   ar
    13    12    13   ar
    14    13    14   ar
    15    14    15   ar
    16     6     7   ar
    17     7     8   ar
    18     8     9   ar
    19     9    10   ar
    20    16    19    1
    21    19    20   ar
    22    20    21   ar
    23    21    22   ar
    24    22    23   ar
    25    10     1   ar
    26    23    19   ar
    27     9     4   ar
    28    15    11   ar
    29    17    18    1
    30    23    24    1
@<TRIPOS>MOLECULE
*****
 27 30 0 0 0
SMALL
GASTEIGER

@<TRIPOS>ATOM
      1 C          62.4022   89.3850   10.6480 C.ar    1  UNL1        0.0070
      2 C          62.9247   90.6485   10.0312 C.ar    1  UNL1       -0.0017
      3 C          63.9321   91.4814   10.7669 C.ar    1  UNL1       -0.0002
      4 C          64.4170   91.0508   12.1195 C.ar    1  UNL1        0.0001
      5 C          65.4244   91.8838   12.8553 C.ar    1  UNL1        0.0031
      6 C          65.9093   91.4532   14.2079 C.ar    1  UNL1        0.0362
      7 C          65.3867   90.1896   14.8247 C.ar    1  UNL1        0.0031
      8 C          64.3793   89.3567   14.0889 C.ar    1  UNL1        0.0001
      9 C          63.8944   89.7873   12.7363 C.ar    1  UNL1       -0.0002
     10 C          62.8871   88.9544   12.0006 C.ar    1  UNL1       -0.0017
     11 C          66.9166   92.2861   14.9436 C.ar    1  UNL1        0.1664
     12 C          67.0227   93.7818   14.9027 C.ar    1  UNL1        0.1396
     13 N          68.1665   94.1897   15.7833 N.ar    1  UNL1       -0.2026
     14 C          68.7673   92.9460   16.3685 C.ar    1  UNL1        0.2851
     15 O          67.9948   91.7696   15.8495 O.2     1  UNL1       -0.4311
     16 C          61.3948   88.5520    9.9122 C.3     1  UNL1        0.1426
     17 O          62.4763   88.0455    9.0047 O.3     1  UNL1       -0.3770
     18 H          63.2237   88.6637    9.0159 H       1  UNL1        0.2112
     19 C          60.3132   89.0585   10.8198 C.ar    1  UNL1        0.1019
     20 C          59.7901   90.4634   10.8694 C.ar    1  UNL1        0.1404
     21 N          58.7184   90.5223   11.9174 N.ar    1  UNL1       -0.1276
     22 N          58.5792   89.1536   12.5154 N.ar    1  UNL1       -0.0674
     23 N          59.5648   88.2490   11.8370 N.ar    1  UNL1       -0.2579
     24 H          59.6973   87.2920   12.0262 H       1  UNL1        0.1904
     25 C          60.3753   86.2292    9.3505 C.3     1  UNL1        0.0031
     26 C          60.3873   87.7190    9.1765 C.3     1  UNL1        0.0340
     27 C          59.3919   88.3759    8.2668 C.3     1  UNL1        0.0031
@<TRIPOS>BOND
     1    25    26    1
     2    26    27    1
     3    26    16    1
     4    16    17    1
     5    16     1    1
     6     1     2   ar
     7     2     3   ar
     8     3     4   ar
     9     4     5   ar
    10     5     6   ar
    11     6    11    1
    12    11    12   ar
    13    12    13   ar
    14    13    14   ar
    15    14    15   ar
    16     6     7   ar
    17     7     8   ar
    18     8     9   ar
    19     9    10   ar
    20    16    19    1
    21    19    20   ar
    22    20    21   ar
    23    21    22   ar
    24    22    23   ar
    25    10     1   ar
    26    23    19   ar
    27     9     4   ar
    28    15    11   ar
    29    17    18    1
    30    23    24    1
@<TRIPOS>MOLECULE
*****
 27 30 0 0 0
SMALL
GASTEIGER

@<TRIPOS>ATOM
      1 C          65.9046   94.0398   11.5856 C.ar    1  UNL1        0.0070
      2 C          66.5637   94.0202   12.9329 C.ar    1  UNL1       -0.0017
      3 C          66.2886   92.8952   13.8861 C.ar    1  UNL1       -0.0002
      4 C          65.3544   91.7898   13.4920 C.ar    1  UNL1        0.0001
      5 C          65.0794   90.6647   14.4452 C.ar    1  UNL1        0.0031
      6 C          64.1452   89.5593   14.0511 C.ar    1  UNL1        0.0362
      7 C          63.4860   89.5789   12.7038 C.ar    1  UNL1        0.0031
      8 C          63.7611   90.7040   11.7506 C.ar    1  UNL1        0.0001
      9 C          64.6953   91.8094   12.1447 C.ar    1  UNL1       -0.0002
     10 C          64.9704   92.9344   11.1916 C.ar    1  UNL1       -0.0017
     11 C          63.8701   88.4342   15.0043 C.ar    1  UNL1        0.1664
     12 C          64.3069   87.0092   14.8359 C.ar    1  UNL1        0.1396
     13 N          63.8167   86.2309   16.0207 N.ar    1  UNL1       -0.2026
     14 C          63.0768   87.1750   16.9215 C.ar    1  UNL1        0.2851
     15 O          63.1098   88.5367   16.2933 O.2     1  UNL1       -0.4311
     16 C          66.1797   95.1649   10.6324 C.3     1  UNL1        0.1426
     17 O          65.2463   96.0485   11.4058 O.3     1  UNL1       -0.3770
     18 H          64.6338   95.4999   11.9203 H       1  UNL1        0.2112
     19 C          67.1130   94.2814    9.8590 C.ar    1  UNL1        0.1019
     20 C          67.2182   94.2036    8.3647 C.ar    1  UNL1        0.1404
     21 N          68.2753   93.1946    8.0263 N.ar    1  UNL1       -0.1276
     22 N          68.8235   92.6487    9.3115 N.ar    1  UNL1       -0.0674
     23 N          68.1052   93.3204   10.4441 N.ar    1  UNL1       -0.2579
     24 H          68.2580   93.1588   11.4032 H       1  UNL1        0.1904
     25 C          65.3437   96.8542    8.8443 C.3     1  UNL1        0.0031
     26 C          66.4548   96.2899    9.6792 C.3     1  UNL1        0.0340
     27 C          67.8410   96.8507    9.5608 C.3     1  UNL1        0.0031
@<TRIPOS>BOND
     1    25    26    1
     2    26    27    1
     3    26    16    1
     4    16    17    1
     5    16     1    1
     6     1     2   ar
     7     2     3   ar
     8     3     4   ar
     9     4     5   ar
    10     5     6   ar
    11     6    11    1
    12    11    12   ar
    13    12    13   ar
    14    13    14   ar
    15    14    15   ar
    16     6     7   ar
    17     7     8   ar
    18     8     9   ar
    19     9    10   ar
    20    16    19    1
    21    19    20   ar
    22    20    21   ar
    23    21    22   ar
    24    22    23   ar
    25    10     1   ar
    26    23    19   ar
    27     9     4   ar
    28    15    11   ar
    29    17    18    1
    30    23    24    1
@<TRIPOS>MOLECULE
*****
 27 30 0 0 0
SMALL
GASTEIGER

@<TRIPOS>ATOM
      1 C          61.8555   89.4871   10.2185 C.ar    1  UNL1        0.0070
      2 C          62.4672   90.7690    9.7366 C.ar    1  UNL1       -0.0017
      3 C          63.4927   91.4725   10.5753 C.ar    1  UNL1       -0.0002
      4 C          63.9064   90.8939   11.8959 C.ar    1  UNL1        0.0001
      5 C          64.9320   91.5974   12.7347 C.ar    1  UNL1        0.0031
      6 C          65.3458   91.0189   14.0553 C.ar    1  UNL1        0.0362
      7 C          64.7340   89.7368   14.5372 C.ar    1  UNL1        0.0031
      8 C          63.7085   89.0334   13.6985 C.ar    1  UNL1        0.0001
      9 C          63.2947   89.6119   12.3778 C.ar    1  UNL1       -0.0002
     10 C          62.2693   88.9085   11.5391 C.ar    1  UNL1       -0.0017
     11 C          66.3713   91.7223   14.8940 C.ar    1  UNL1        0.1664
     12 C          66.0888   92.6924   16.0026 C.ar    1  UNL1        0.1396
     13 N          67.4022   93.1489   16.5652 N.ar    1  UNL1       -0.2026
     14 C          68.4966   92.4608   15.8042 C.ar    1  UNL1        0.2851
     15 O          67.8594   91.5791   14.7714 O.2     1  UNL1       -0.4311
     16 C          60.8299   88.7836    9.3798 C.3     1  UNL1        0.1426
     17 O          60.2588   90.1078    8.9673 O.3     1  UNL1       -0.3770
     18 H          60.5085   90.7839    9.6164 H       1  UNL1        0.2112
     19 C          61.4010   87.4593    9.7922 C.ar    1  UNL1        0.1019
     20 C          62.3895   86.6440    9.0124 C.ar    1  UNL1        0.1404
     21 N          62.6833   85.3986    9.7952 N.ar    1  UNL1       -0.1276
     22 N          61.8765   85.4443   11.0590 N.ar    1  UNL1       -0.0674
     23 N          61.0840   86.7178   11.0571 N.ar    1  UNL1       -0.2579
     24 H          60.4645   87.0149   11.7623 H       1  UNL1        0.1904
     25 C          59.3849   88.6626    7.2240 C.3     1  UNL1        0.0031
     26 C          59.8044   88.0800    8.5411 C.3     1  UNL1        0.0340
     27 C          59.1985   86.7939    9.0194 C.3     1  UNL1        0.0031
@<TRIPOS>BOND
     1    25    26    1
     2    26    27    1
     3    26    16    1
     4    16    17    1
     5    16     1    1
     6     1     2   ar
     7     2     3   ar
     8     3     4   ar
     9     4     5   ar
    10     5     6   ar
    11     6    11    1
    12    11    12   ar
    13    12    13   ar
    14    13    14   ar
    15    14    15   ar
    16     6     7   ar
    17     7     8   ar
    18     8     9   ar
    19     9    10   ar
    20    16    19    1
    21    19    20   ar
    22    20    21   ar
    23    21    22   ar
    24    22    23   ar
    25    10     1   ar
    26    23    19   ar
    27     9     4   ar
    28    15    11   ar
    29    17    18    1
    30    23    24    1
@<TRIPOS>MOLECULE
*****
 27 30 0 0 0
SMALL
GASTEIGER

@<TRIPOS>ATOM
      1 C          62.4740   89.1280   10.9993 C.ar    1  UNL1        0.0070
      2 C          62.7881   88.3867   12.2649 C.ar    1  UNL1       -0.0017
      3 C          63.7741   88.9552   13.2419 C.ar    1  UNL1       -0.0002
      4 C          64.4459   90.2649   12.9533 C.ar    1  UNL1        0.0001
      5 C          65.4320   90.8333   13.9304 C.ar    1  UNL1        0.0031
      6 C          66.1038   92.1430   13.6419 C.ar    1  UNL1        0.0362
      7 C          65.7896   92.8843   12.3762 C.ar    1  UNL1        0.0031
      8 C          64.8036   92.3159   11.3992 C.ar    1  UNL1        0.0001
      9 C          64.1318   91.0062   11.6877 C.ar    1  UNL1       -0.0002
     10 C          63.1458   90.4377   10.7107 C.ar    1  UNL1       -0.0017
     11 C          67.0898   92.7115   14.6189 C.ar    1  UNL1        0.1664
     12 C          66.8111   93.0603   16.0509 C.ar    1  UNL1        0.1396
     13 N          68.0767   93.5953   16.6525 N.ar    1  UNL1       -0.2026
     14 C          69.1376   93.5772   15.5923 C.ar    1  UNL1        0.2851
     15 O          68.5277   93.0310   14.3355 O.2     1  UNL1       -0.4311
     16 C          61.4879   88.5595   10.0222 C.3     1  UNL1        0.1426
     17 O          62.5978   87.8270    9.3282 O.3     1  UNL1       -0.3770
     18 H          63.4442   88.2552    9.5311 H       1  UNL1        0.2112
     19 C          60.3781   89.2921   10.7161 C.ar    1  UNL1        0.1019
     20 C          59.4332   88.7100   11.7253 C.ar    1  UNL1        0.1404
     21 N          58.4893   89.7936   12.1556 N.ar    1  UNL1       -0.1276
     22 N          58.8509   91.0453   11.4123 N.ar    1  UNL1       -0.0674
     23 N          60.0181   90.7354   10.5226 N.ar    1  UNL1       -0.2579
     24 H          60.4689   91.3682    9.9180 H       1  UNL1        0.1904
     25 C          59.7836   88.8985    8.0908 C.3     1  UNL1        0.0031
     26 C          60.5019   87.9911    9.0451 C.3     1  UNL1        0.0340
     27 C          60.2341   86.5154    9.0224 C.3     1  UNL1        0.0031
@<TRIPOS>BOND
     1    25    26    1
     2    26    27    1
     3    26    16    1
     4    16    17    1
     5    16     1    1
     6     1     2   ar
     7     2     3   ar
     8     3     4   ar
     9     4     5   ar
    10     5     6   ar
    11     6    11    1
    12    11    12   ar
    13    12    13   ar
    14    13    14   ar
    15    14    15   ar
    16     6     7   ar
    17     7     8   ar
    18     8     9   ar
    19     9    10   ar
    20    16    19    1
    21    19    20   ar
    22    20    21   ar
    23    21    22   ar
    24    22    23   ar
    25    10     1   ar
    26    23    19   ar
    27     9     4   ar
    28    15    11   ar
    29    17    18    1
    30    23    24    1
@<TRIPOS>MOLECULE
*****
 27 30 0 0 0
SMALL
GASTEIGER

@<TRIPOS>ATOM
      1 C          64.5667   90.9008   13.1711 C.ar    1  UNL1        0.0070
      2 C          64.0850   91.7426   12.0269 C.ar    1  UNL1       -0.0017
      3 C          63.2129   91.1386   10.9665 C.ar    1  UNL1       -0.0002
      4 C          62.8224   89.6927   11.0503 C.ar    1  UNL1        0.0001
      5 C          61.9503   89.0886    9.9898 C.ar    1  UNL1        0.0031
      6 C          61.5599   87.6428   10.0737 C.ar    1  UNL1        0.0362
      7 C          62.0416   86.8010   11.2180 C.ar    1  UNL1        0.0031
      8 C          62.9137   87.4050   12.2783 C.ar    1  UNL1        0.0001
      9 C          63.3042   88.8509   12.1945 C.ar    1  UNL1       -0.0002
     10 C          64.1763   89.4550   13.2549 C.ar    1  UNL1       -0.0017
     11 C          60.6877   87.0387    9.0133 C.ar    1  UNL1        0.1664
     12 C          61.0779   85.9374    8.0725 C.ar    1  UNL1        0.1396
     13 N          59.9036   85.6479    7.1853 N.ar    1  UNL1       -0.2026
     14 C          58.7877   86.5703    7.5777 C.ar    1  UNL1        0.2851
     15 O          59.2723   87.4299    8.7074 O.2     1  UNL1       -0.4311
     16 C          65.4389   91.5049   14.2315 C.3     1  UNL1        0.1426
     17 O          64.7829   90.6378   15.2649 O.3     1  UNL1       -0.3770
     18 H          63.9167   90.3464   14.9399 H       1  UNL1        0.2112
     19 C          66.0948   92.3719   13.1981 C.ar    1  UNL1        0.1019
     20 C          67.0107   91.9034   12.1066 C.ar    1  UNL1        0.1404
     21 N          67.4319   93.1017   11.3086 N.ar    1  UNL1       -0.1276
     22 N          66.7763   94.3109   11.9071 N.ar    1  UNL1       -0.0674
     23 N          65.9499   93.8599   13.0748 N.ar    1  UNL1       -0.2579
     24 H          65.4077   94.4388   13.6580 H       1  UNL1        0.1904
     25 C          65.6902   92.7915   16.4746 C.3     1  UNL1        0.0031
     26 C          66.3110   92.1089   15.2919 C.3     1  UNL1        0.0340
     27 C          67.8040   92.0305   15.1696 C.3     1  UNL1        0.0031
@<TRIPOS>BOND
     1    25    26    1
     2    26    27    1
     3    26    16    1
     4    16    17    1
     5    16     1    1
     6     1     2   ar
     7     2     3   ar
     8     3     4   ar
     9     4     5   ar
    10     5     6   ar
    11     6    11    1
    12    11    12   ar
    13    12    13   ar
    14    13    14   ar
    15    14    15   ar
    16     6     7   ar
    17     7     8   ar
    18     8     9   ar
    19     9    10   ar
    20    16    19    1
    21    19    20   ar
    22    20    21   ar
    23    21    22   ar
    24    22    23   ar
    25    10     1   ar
    26    23    19   ar
    27     9     4   ar
    28    15    11   ar
    29    17    18    1
    30    23    24    1
@<TRIPOS>MOLECULE
*****
 27 30 0 0 0
SMALL
GASTEIGER

@<TRIPOS>ATOM
      1 C          65.3906   91.0379   13.6404 C.ar    1  UNL1        0.0070
      2 C          64.9285   89.6976   14.1303 C.ar    1  UNL1       -0.0017
      3 C          63.9037   88.9271   13.3519 C.ar    1  UNL1       -0.0002
      4 C          63.3410   89.4969   12.0835 C.ar    1  UNL1        0.0001
      5 C          62.3162   88.7263   11.3050 C.ar    1  UNL1        0.0031
      6 C          61.7535   89.2960   10.0366 C.ar    1  UNL1        0.0362
      7 C          62.2157   90.6364    9.5467 C.ar    1  UNL1        0.0031
      8 C          63.2405   91.4069   10.3252 C.ar    1  UNL1        0.0001
      9 C          63.8031   90.8371   11.5936 C.ar    1  UNL1       -0.0002
     10 C          64.8279   91.6077   12.3720 C.ar    1  UNL1       -0.0017
     11 C          60.7287   88.5255    9.2581 C.ar    1  UNL1        0.1664
     12 C          59.8416   89.0767    8.1815 C.ar    1  UNL1        0.1396
     13 N          58.9757   87.9603    7.6775 N.ar    1  UNL1       -0.2026
     14 C          59.3277   86.7191    8.4428 C.ar    1  UNL1        0.2851
     15 O          60.4111   87.0684    9.4197 O.2     1  UNL1       -0.4311
     16 C          66.4154   91.8085   14.4189 C.3     1  UNL1        0.1426
     17 O          67.4212   91.5688   13.3323 O.3     1  UNL1       -0.3770
     18 H          67.1538   90.7973   12.8086 H       1  UNL1        0.2112
     19 C          65.4096   92.0482   15.5056 C.ar    1  UNL1        0.1019
     20 C          64.0395   91.4432   15.5880 C.ar    1  UNL1        0.1404
     21 N          63.3804   91.9562   16.8341 N.ar    1  UNL1       -0.1276
     22 N          64.3433   92.8782   17.5218 N.ar    1  UNL1       -0.0674
     23 N          65.5973   92.9351   16.7008 N.ar    1  UNL1       -0.2579
     24 H          66.4023   93.4620   16.9096 H       1  UNL1        0.1904
     25 C          67.6130   94.0499   14.9591 C.3     1  UNL1        0.0031
     26 C          67.4402   92.5791   15.1974 C.3     1  UNL1        0.0340
     27 C          68.2921   91.8788   16.2142 C.3     1  UNL1        0.0031
@<TRIPOS>BOND
     1    25    26    1
     2    26    27    1
     3    26    16    1
     4    16    17    1
     5    16     1    1
     6     1     2   ar
     7     2     3   ar
     8     3     4   ar
     9     4     5   ar
    10     5     6   ar
    11     6    11    1
    12    11    12   ar
    13    12    13   ar
    14    13    14   ar
    15    14    15   ar
    16     6     7   ar
    17     7     8   ar
    18     8     9   ar
    19     9    10   ar
    20    16    19    1
    21    19    20   ar
    22    20    21   ar
    23    21    22   ar
    24    22    23   ar
    25    10     1   ar
    26    23    19   ar
    27     9     4   ar
    28    15    11   ar
    29    17    18    1
    30    23    24    1
