@<TRIPOS>MOLECULE
*****
 39 42 0 0 0
SMALL
GASTEIGER

@<TRIPOS>ATOM
      1 C          64.1437   89.3044   13.1575 C.ar    1  UNL1        0.0053
      2 C          64.4159   89.1049   14.6190 C.ar    1  UNL1        0.0033
      3 C          64.1809   87.7643   15.2495 C.ar    1  UNL1        0.0382
      4 C          63.6736   86.6232   14.4185 C.ar    1  UNL1        0.1529
      5 C          63.4014   86.8227   12.9569 C.ar    1  UNL1        0.0881
      6 C          63.6365   88.1633   12.3264 C.ar    1  UNL1        0.0181
      7 N          62.8941   85.6816   12.1259 N.am    1  UNL1       -0.2528
      8 C          62.6591   84.3411   12.7564 C.2     1  UNL1        0.2697
      9 O          62.1518   83.2000   11.9254 O.2     1  UNL1       -0.2704
     10 C          62.9313   84.1415   14.2180 C.3     1  UNL1        0.2199
     11 C          63.0405   83.4640   15.5518 C.3     1  UNL1        0.0579
     12 O          63.4385   85.2826   15.0490 O.3     1  UNL1       -0.4686
     13 C          65.2674   91.6465   13.2032 C.ar    1  UNL1        0.0645
     14 N          65.5025   92.9870   12.5727 N.ar    1  UNL1       -0.2183
     15 C          64.8489   93.3262   11.2658 C.ar    1  UNL1        0.2145
     16 N          65.0840   94.6667   10.6353 N.pl3   1  UNL1       -0.3274
     17 N          63.9604   92.3247   10.5894 N.ar    1  UNL1       -0.1995
     18 C          63.7253   90.9841   11.2200 C.ar    1  UNL1        0.1293
     19 N          62.8367   89.9826   10.5437 N.pl3   1  UNL1       -0.3425
     20 C          64.3788   90.6450   12.5269 C.ar    1  UNL1        0.0449
     21 H          65.6672   95.3240   11.0792 H       1  UNL1        0.1452
     22 H          64.6551   94.8893    9.7775 H       1  UNL1        0.1452
     23 H          62.4078   90.2051    9.6859 H       1  UNL1        0.1437
     24 H          62.6824   89.1027   10.9575 H       1  UNL1        0.1437
     25 C          67.3585   91.6652   14.7449 C.3     1  UNL1        0.0067
     26 C          65.9209   91.3073   14.5102 C.3     1  UNL1        0.0460
     27 C          62.4619   82.7652   13.8502 C.ar    1  UNL1        0.0264
     28 C          61.2237   82.2013   14.4818 C.ar    1  UNL1        0.0293
     29 C          60.7544   80.8248   14.1140 C.ar    1  UNL1        0.1422
     30 F          59.5162   80.2610   14.7456 F       1  UNL1       -0.2041
     31 C          61.5232   80.0124   13.1147 C.ar    1  UNL1        0.0592
     32 C          62.7613   80.5763   12.4831 C.ar    1  UNL1        0.1422
     33 F          63.5302   79.7638   11.4837 F       1  UNL1       -0.2041
     34 C          63.2308   81.9527   12.8508 C.ar    1  UNL1        0.0293
     35 C          62.6219   85.8811   10.6644 C.3     1  UNL1        0.1010
     36 C          61.2115   86.0392   10.1789 C.3     1  UNL1        0.0536
     37 C          60.5119   87.3582   10.3237 C.3     1  UNL1        0.1389
     38 O          60.0287   87.8069   11.6710 O.3     1  UNL1       -0.3819
     39 H          59.3233   87.2147   11.9753 H       1  UNL1        0.2104
@<TRIPOS>BOND
     1    25    26    1
     2    26    13    1
     3    13    14   ar
     4    14    15   ar
     5    15    16    1
     6    15    17   ar
     7    17    18   ar
     8    18    19    1
     9    18    20   ar
    10    20     1    1
    11     1     2   ar
    12     2     3   ar
    13     3     4   ar
    14     4     5   ar
    15     5     6   ar
    16     5     7    1
    17     7    35    1
    18    35    36    1
    19    36    37    1
    20    37    38    1
    21     7     8   am
    22     8     9    2
    23     8    10    1
    24    10    11    1
    25    10    27    1
    26    27    28   ar
    27    28    29   ar
    28    29    30    1
    29    29    31   ar
    30    31    32   ar
    31    32    33    1
    32    32    34   ar
    33    10    12    1
    34    20    13   ar
    35     6     1   ar
    36    34    27   ar
    37    12     4    1
    38    16    21    1
    39    16    22    1
    40    19    23    1
    41    19    24    1
    42    38    39    1
@<TRIPOS>MOLECULE
*****
 39 42 0 0 0
SMALL
GASTEIGER

@<TRIPOS>ATOM
      1 C          64.1093   89.2771   13.1552 C.ar    1  UNL1        0.0053
      2 C          64.3817   89.0778   14.6167 C.ar    1  UNL1        0.0033
      3 C          64.1488   87.7367   15.2469 C.ar    1  UNL1        0.0382
      4 C          63.6435   86.5949   14.4156 C.ar    1  UNL1        0.1529
      5 C          63.3710   86.7943   12.9541 C.ar    1  UNL1        0.0881
      6 C          63.6039   88.1353   12.3239 C.ar    1  UNL1        0.0181
      7 N          62.8657   85.6525   12.1229 N.am    1  UNL1       -0.2528
      8 C          62.6328   84.3114   12.7531 C.2     1  UNL1        0.2697
      9 O          62.1274   83.1697   11.9218 O.2     1  UNL1       -0.2704
     10 C          62.9053   84.1121   14.2146 C.3     1  UNL1        0.2199
     11 C          63.0155   83.4345   15.5483 C.3     1  UNL1        0.0579
     12 O          63.4106   85.2538   15.0459 O.3     1  UNL1       -0.4686
     13 C          65.2673   91.6028   13.1767 C.ar    1  UNL1        0.0645
     14 N          65.5002   92.9438   12.5465 N.ar    1  UNL1       -0.2183
     15 C          64.8080   93.3004   11.2643 C.ar    1  UNL1        0.2145
     16 N          65.0409   94.6415   10.6341 N.pl3   1  UNL1       -0.3274
     17 N          63.8829   92.3159   10.6125 N.ar    1  UNL1       -0.1995
     18 C          63.6500   90.9748   11.2428 C.ar    1  UNL1        0.1293
     19 N          62.7249   89.9902   10.5910 N.pl3   1  UNL1       -0.3425
     20 C          64.3422   90.6182   12.5249 C.ar    1  UNL1        0.0449
     21 H          65.6481   95.2877   11.0619 H       1  UNL1        0.1452
     22 H          64.5866   94.8756    9.7927 H       1  UNL1        0.1452
     23 H          62.2705   90.2243    9.7495 H       1  UNL1        0.1437
     24 H          62.5720   89.1100   11.0047 H       1  UNL1        0.1437
     25 C          67.3535   91.7349   14.7196 C.3     1  UNL1        0.0067
     26 C          65.9595   91.2462   14.4588 C.3     1  UNL1        0.0460
     27 C          62.4382   82.7350   13.8466 C.ar    1  UNL1        0.0264
     28 C          63.2094   81.9233   12.8484 C.ar    1  UNL1        0.0293
     29 C          62.7423   80.5462   12.4803 C.ar    1  UNL1        0.1422
     30 F          63.5136   79.7345   11.4821 F       1  UNL1       -0.2041
     31 C          61.5041   79.9808   13.1103 C.ar    1  UNL1        0.0592
     32 C          60.7329   80.7925   14.1085 C.ar    1  UNL1        0.1422
     33 F          59.4946   80.2271   14.7386 F       1  UNL1       -0.2041
     34 C          61.1999   82.1696   14.4766 C.ar    1  UNL1        0.0293
     35 C          62.5932   85.8518   10.6614 C.3     1  UNL1        0.1010
     36 C          61.1824   86.0045   10.1755 C.3     1  UNL1        0.0536
     37 C          60.4784   87.3215   10.3179 C.3     1  UNL1        0.1389
     38 O          60.0437   87.7968   11.6726 O.3     1  UNL1       -0.3819
     39 H          59.3551   87.2066   12.0167 H       1  UNL1        0.2104
@<TRIPOS>BOND
     1    25    26    1
     2    26    13    1
     3    13    14   ar
     4    14    15   ar
     5    15    16    1
     6    15    17   ar
     7    17    18   ar
     8    18    19    1
     9    18    20   ar
    10    20     1    1
    11     1     2   ar
    12     2     3   ar
    13     3     4   ar
    14     4     5   ar
    15     5     6   ar
    16     5     7    1
    17     7    35    1
    18    35    36    1
    19    36    37    1
    20    37    38    1
    21     7     8   am
    22     8     9    2
    23     8    10    1
    24    10    11    1
    25    10    27    1
    26    27    28   ar
    27    28    29   ar
    28    29    30    1
    29    29    31   ar
    30    31    32   ar
    31    32    33    1
    32    32    34   ar
    33    10    12    1
    34    20    13   ar
    35     6     1   ar
    36    34    27   ar
    37    12     4    1
    38    16    21    1
    39    16    22    1
    40    19    23    1
    41    19    24    1
    42    38    39    1
@<TRIPOS>MOLECULE
*****
 39 42 0 0 0
SMALL
GASTEIGER

@<TRIPOS>ATOM
      1 C          65.3383   90.6793   14.0940 C.ar    1  UNL1        0.0053
      2 C          65.0595   89.3944   14.8159 C.ar    1  UNL1        0.0033
      3 C          64.1415   88.3762   14.2074 C.ar    1  UNL1        0.0382
      4 C          63.5021   88.6428   12.8770 C.ar    1  UNL1        0.1529
      5 C          63.7808   89.9277   12.1550 C.ar    1  UNL1        0.0881
      6 C          64.6989   90.9460   12.7635 C.ar    1  UNL1        0.0181
      7 N          63.1415   90.1944   10.8246 N.am    1  UNL1       -0.2528
      8 C          62.2234   89.1761   10.2161 C.2     1  UNL1        0.2697
      9 O          61.5841   89.4428    8.8856 O.2     1  UNL1       -0.2704
     10 C          61.9447   87.8911   10.9381 C.3     1  UNL1        0.2199
     11 C          61.3753   86.5353   11.2336 C.3     1  UNL1        0.0579
     12 O          62.5840   87.6245   12.2685 O.3     1  UNL1       -0.4686
     13 C          67.5681   92.0119   14.0462 C.ar    1  UNL1        0.0645
     14 N          68.4861   93.0302   14.6546 N.ar    1  UNL1       -0.2183
     15 C          68.0925   93.7342   15.9193 C.ar    1  UNL1        0.2145
     16 N          69.0106   94.7525   16.5277 N.pl3   1  UNL1       -0.3274
     17 N          66.7808   93.4200   16.5756 N.ar    1  UNL1       -0.1995
     18 C          65.8627   92.4016   15.9671 C.ar    1  UNL1        0.1293
     19 N          64.5510   92.0874   16.6233 N.pl3   1  UNL1       -0.3425
     20 C          66.2564   91.6976   14.7024 C.ar    1  UNL1        0.0449
     21 H          69.8715   94.9588   16.0970 H       1  UNL1        0.1452
     22 H          68.7523   95.2146   17.3578 H       1  UNL1        0.1452
     23 H          64.2927   92.5494   17.4534 H       1  UNL1        0.1437
     24 H          63.9485   91.4190   16.2240 H       1  UNL1        0.1437
     25 C          68.1704   92.0924   11.5202 C.3     1  UNL1        0.0067
     26 C          67.9617   91.3079   12.7815 C.3     1  UNL1        0.0460
     27 C          61.1076   87.6869    9.7103 C.ar    1  UNL1        0.0264
     28 C          60.2034   88.7824    9.2283 C.ar    1  UNL1        0.0293
     29 C          59.3663   88.5782    8.0004 C.ar    1  UNL1        0.1422
     30 F          58.4621   89.6738    7.5185 F       1  UNL1       -0.2041
     31 C          59.4333   87.2786    7.2546 C.ar    1  UNL1        0.0592
     32 C          60.3375   86.1831    7.7366 C.ar    1  UNL1        0.1422
     33 F          60.4046   84.8833    6.9908 F       1  UNL1       -0.2041
     34 C          61.1747   86.3872    8.9644 C.ar    1  UNL1        0.0293
     35 C          63.4202   91.4793   10.1026 C.3     1  UNL1        0.1010
     36 C          64.8063   92.0526   10.0998 C.3     1  UNL1        0.0536
     37 C          65.0237   93.4911   10.4655 C.3     1  UNL1        0.1389
     38 O          65.9947   94.3252    9.6836 O.3     1  UNL1       -0.3819
     39 H          66.8935   93.9860    9.8176 H       1  UNL1        0.2104
@<TRIPOS>BOND
     1    25    26    1
     2    26    13    1
     3    13    14   ar
     4    14    15   ar
     5    15    16    1
     6    15    17   ar
     7    17    18   ar
     8    18    19    1
     9    18    20   ar
    10    20     1    1
    11     1     2   ar
    12     2     3   ar
    13     3     4   ar
    14     4     5   ar
    15     5     6   ar
    16     5     7    1
    17     7    35    1
    18    35    36    1
    19    36    37    1
    20    37    38    1
    21     7     8   am
    22     8     9    2
    23     8    10    1
    24    10    11    1
    25    10    27    1
    26    27    28   ar
    27    28    29   ar
    28    29    30    1
    29    29    31   ar
    30    31    32   ar
    31    32    33    1
    32    32    34   ar
    33    10    12    1
    34    20    13   ar
    35     6     1   ar
    36    34    27   ar
    37    12     4    1
    38    16    21    1
    39    16    22    1
    40    19    23    1
    41    19    24    1
    42    38    39    1
@<TRIPOS>MOLECULE
*****
 39 42 0 0 0
SMALL
GASTEIGER

@<TRIPOS>ATOM
      1 C          64.1881   89.4191   13.2081 C.ar    1  UNL1        0.0053
      2 C          64.4273   89.2213   14.6756 C.ar    1  UNL1        0.0033
      3 C          64.1798   87.8810   15.3019 C.ar    1  UNL1        0.0382
      4 C          63.6930   86.7385   14.4606 C.ar    1  UNL1        0.1529
      5 C          63.4538   86.9362   12.9931 C.ar    1  UNL1        0.0881
      6 C          63.7013   88.2765   12.3669 C.ar    1  UNL1        0.0181
      7 N          62.9670   85.7937   12.1519 N.am    1  UNL1       -0.2528
      8 C          62.7194   84.4534   12.7782 C.2     1  UNL1        0.2697
      9 O          62.2327   83.3109   11.9369 O.2     1  UNL1       -0.2704
     10 C          62.9587   84.2556   14.2457 C.3     1  UNL1        0.2199
     11 C          63.0385   83.5795   15.5823 C.3     1  UNL1        0.0579
     12 O          63.4455   85.3981   15.0870 O.3     1  UNL1       -0.4686
     13 C          63.7790   91.1117   11.2800 C.ar    1  UNL1        0.0645
     14 N          64.0265   92.4520   10.6536 N.ar    1  UNL1       -0.2183
     15 C          64.9307   93.4401   11.3291 C.ar    1  UNL1        0.2145
     16 N          65.1782   94.7804   10.7027 N.pl3   1  UNL1       -0.3274
     17 N          65.5874   93.0878   12.6309 N.ar    1  UNL1       -0.1995
     18 C          65.3398   91.7474   13.2572 C.ar    1  UNL1        0.1293
     19 N          65.9965   91.3951   14.5590 N.pl3   1  UNL1       -0.3425
     20 C          64.4356   90.7594   12.5818 C.ar    1  UNL1        0.0449
     21 H          64.7472   95.0116    9.8483 H       1  UNL1        0.1452
     22 H          65.7717   95.4288   11.1460 H       1  UNL1        0.1452
     23 H          66.5900   92.0436   15.0023 H       1  UNL1        0.1437
     24 H          65.8341   90.5155   14.9701 H       1  UNL1        0.1437
     25 C          61.4320   90.4632   10.3735 C.3     1  UNL1        0.0067
     26 C          62.8747   90.1236   10.6045 C.3     1  UNL1        0.0460
     27 C          62.4996   82.8783   13.8687 C.ar    1  UNL1        0.0264
     28 C          61.2638   82.3022   14.4939 C.ar    1  UNL1        0.0293
     29 C          60.8047   80.9248   14.1168 C.ar    1  UNL1        0.1422
     30 F          59.5688   80.3489   14.7420 F       1  UNL1       -0.2041
     31 C          61.5814   80.1236   13.1146 C.ar    1  UNL1        0.0592
     32 C          62.8173   80.6996   12.4894 C.ar    1  UNL1        0.1422
     33 F          63.5941   79.8982   11.4871 F       1  UNL1       -0.2041
     34 C          63.2764   82.0769   12.8664 C.ar    1  UNL1        0.0293
     35 C          62.7278   85.9915   10.6844 C.3     1  UNL1        0.1010
     36 C          61.3290   85.9708   10.1430 C.3     1  UNL1        0.0536
     37 C          60.4400   87.1666   10.3163 C.3     1  UNL1        0.1389
     38 O          60.0714   87.6338   11.6932 O.3     1  UNL1       -0.3819
     39 H          59.5245   86.9606   12.1275 H       1  UNL1        0.2104
@<TRIPOS>BOND
     1    25    26    1
     2    26    13    1
     3    13    14   ar
     4    14    15   ar
     5    15    16    1
     6    15    17   ar
     7    17    18   ar
     8    18    19    1
     9    18    20   ar
    10    20     1    1
    11     1     2   ar
    12     2     3   ar
    13     3     4   ar
    14     4     5   ar
    15     5     6   ar
    16     5     7    1
    17     7    35    1
    18    35    36    1
    19    36    37    1
    20    37    38    1
    21     7     8   am
    22     8     9    2
    23     8    10    1
    24    10    11    1
    25    10    27    1
    26    27    28   ar
    27    28    29   ar
    28    29    30    1
    29    29    31   ar
    30    31    32   ar
    31    32    33    1
    32    32    34   ar
    33    10    12    1
    34    20    13   ar
    35     6     1   ar
    36    34    27   ar
    37    12     4    1
    38    16    21    1
    39    16    22    1
    40    19    23    1
    41    19    24    1
    42    38    39    1
@<TRIPOS>MOLECULE
*****
 39 42 0 0 0
SMALL
GASTEIGER

@<TRIPOS>ATOM
      1 C          64.1886   89.4198   13.2034 C.ar    1  UNL1        0.0053
      2 C          64.4322   89.2199   14.6699 C.ar    1  UNL1        0.0033
      3 C          64.1873   87.8785   15.2949 C.ar    1  UNL1        0.0382
      4 C          63.6986   86.7370   14.4534 C.ar    1  UNL1        0.1529
      5 C          63.4550   86.9369   12.9869 C.ar    1  UNL1        0.0881
      6 C          63.6999   88.2782   12.3619 C.ar    1  UNL1        0.0181
      7 N          62.9663   85.7953   12.1454 N.am    1  UNL1       -0.2528
      8 C          62.7213   84.4539   12.7704 C.2     1  UNL1        0.2697
      9 O          62.2327   83.3124   11.9288 O.2     1  UNL1       -0.2704
     10 C          62.9650   84.2540   14.2369 C.3     1  UNL1        0.2199
     11 C          63.0491   83.5759   15.5722 C.3     1  UNL1        0.0579
     12 O          63.4537   85.3956   15.0784 O.3     1  UNL1       -0.4686
     13 C          63.7727   91.1151   11.2791 C.ar    1  UNL1        0.0645
     14 N          64.0176   92.4565   10.6541 N.ar    1  UNL1       -0.2183
     15 C          64.9234   93.4440   11.3283 C.ar    1  UNL1        0.2145
     16 N          65.1683   94.7854   10.7032 N.pl3   1  UNL1       -0.3274
     17 N          65.5842   93.0901   12.6275 N.ar    1  UNL1       -0.1995
     18 C          65.3393   91.7486   13.2526 C.ar    1  UNL1        0.1293
     19 N          66.0001   91.3947   14.5519 N.pl3   1  UNL1       -0.3425
     20 C          64.4335   90.7612   12.5784 C.ar    1  UNL1        0.0449
     21 H          64.7346   95.0176    9.8505 H       1  UNL1        0.1452
     22 H          65.7628   95.4335   11.1457 H       1  UNL1        0.1452
     23 H          66.5945   92.0428   14.9944 H       1  UNL1        0.1437
     24 H          65.8393   90.5143   14.9621 H       1  UNL1        0.1437
     25 C          61.4229   90.4659   10.3809 C.3     1  UNL1        0.0067
     26 C          62.8669   90.1276   10.6049 C.3     1  UNL1        0.0460
     27 C          62.5056   82.8770   13.8592 C.ar    1  UNL1        0.0264
     28 C          63.2796   82.0778   12.8531 C.ar    1  UNL1        0.0293
     29 C          62.8202   80.7007   12.4754 C.ar    1  UNL1        0.1422
     30 F          63.5943   79.9015   11.4693 F       1  UNL1       -0.2041
     31 C          61.5868   80.1229   13.1035 C.ar    1  UNL1        0.0592
     32 C          60.8128   80.9222   14.1096 C.ar    1  UNL1        0.1422
     33 F          59.5793   80.3444   14.7378 F       1  UNL1       -0.2041
     34 C          61.2721   82.2992   14.4874 C.ar    1  UNL1        0.0293
     35 C          62.7226   85.9952   10.6789 C.3     1  UNL1        0.1010
     36 C          61.3226   85.9711   10.1411 C.3     1  UNL1        0.0536
     37 C          60.4341   87.1680   10.3086 C.3     1  UNL1        0.1389
     38 O          60.0684   87.6441   11.6833 O.3     1  UNL1       -0.3819
     39 H          59.5222   86.9737   12.1229 H       1  UNL1        0.2104
@<TRIPOS>BOND
     1    25    26    1
     2    26    13    1
     3    13    14   ar
     4    14    15   ar
     5    15    16    1
     6    15    17   ar
     7    17    18   ar
     8    18    19    1
     9    18    20   ar
    10    20     1    1
    11     1     2   ar
    12     2     3   ar
    13     3     4   ar
    14     4     5   ar
    15     5     6   ar
    16     5     7    1
    17     7    35    1
    18    35    36    1
    19    36    37    1
    20    37    38    1
    21     7     8   am
    22     8     9    2
    23     8    10    1
    24    10    11    1
    25    10    27    1
    26    27    28   ar
    27    28    29   ar
    28    29    30    1
    29    29    31   ar
    30    31    32   ar
    31    32    33    1
    32    32    34   ar
    33    10    12    1
    34    20    13   ar
    35     6     1   ar
    36    34    27   ar
    37    12     4    1
    38    16    21    1
    39    16    22    1
    40    19    23    1
    41    19    24    1
    42    38    39    1
@<TRIPOS>MOLECULE
*****
 39 42 0 0 0
SMALL
GASTEIGER

@<TRIPOS>ATOM
      1 C          64.6390   90.1224   13.7109 C.ar    1  UNL1        0.0053
      2 C          63.7256   90.4141   12.5574 C.ar    1  UNL1        0.0033
      3 C          63.0006   89.2935   11.8729 C.ar    1  UNL1        0.0382
      4 C          63.1890   87.8812   12.3419 C.ar    1  UNL1        0.1529
      5 C          64.1024   87.5895   13.4953 C.ar    1  UNL1        0.0881
      6 C          64.8274   88.7101   14.1798 C.ar    1  UNL1        0.0181
      7 N          64.2907   86.1772   13.9643 N.am    1  UNL1       -0.2528
      8 C          63.5657   85.0566   13.2798 C.2     1  UNL1        0.2697
      9 O          63.7541   83.6443   13.7488 O.2     1  UNL1       -0.2704
     10 C          62.6523   85.3483   12.1263 C.3     1  UNL1        0.2199
     11 C          61.6880   85.1223   10.9998 C.3     1  UNL1        0.0579
     12 O          62.4639   86.7606   11.6573 O.3     1  UNL1       -0.4686
     13 C          66.5018   91.9334   13.7035 C.ar    1  UNL1        0.0645
     14 N          67.2269   93.0540   14.3880 N.ar    1  UNL1       -0.2183
     15 C          66.8142   93.4842   15.7645 C.ar    1  UNL1        0.2145
     16 N          67.5393   94.6047   16.4490 N.pl3   1  UNL1       -0.3274
     17 N          65.6764   92.7937   16.4564 N.ar    1  UNL1       -0.1995
     18 C          64.9514   91.6731   15.7719 C.ar    1  UNL1        0.1293
     19 N          63.8136   90.9827   16.4638 N.pl3   1  UNL1       -0.3425
     20 C          65.3641   91.2430   14.3954 C.ar    1  UNL1        0.0449
     21 H          68.2860   95.0579   15.9948 H       1  UNL1        0.1452
     22 H          67.2684   94.8871   17.3524 H       1  UNL1        0.1452
     23 H          63.5427   91.2650   17.3672 H       1  UNL1        0.1437
     24 H          63.3377   90.2472   16.0146 H       1  UNL1        0.1437
     25 C          66.7952   92.4574   11.1757 C.3     1  UNL1        0.0067
     26 C          66.9145   91.5033   12.3270 C.3     1  UNL1        0.0460
     27 C          62.5058   83.8575   12.2040 C.ar    1  UNL1        0.0264
     28 C          61.8627   83.2287   13.4044 C.ar    1  UNL1        0.0293
     29 C          61.7162   81.7379   13.4822 C.ar    1  UNL1        0.1422
     30 F          61.0730   81.1091   14.6827 F       1  UNL1       -0.2041
     31 C          62.2127   80.8759   12.3596 C.ar    1  UNL1        0.0592
     32 C          62.8558   81.5047   11.1592 C.ar    1  UNL1        0.1422
     33 F          63.3525   80.6427   10.0365 F       1  UNL1       -0.2041
     34 C          63.0024   82.9955   11.0814 C.ar    1  UNL1        0.0293
     35 C          65.2041   85.8855   15.1178 C.3     1  UNL1        0.1010
     36 C          64.6307   85.5216   16.4552 C.3     1  UNL1        0.0536
     37 C          63.2834   86.0421   16.8603 C.3     1  UNL1        0.1389
     38 O          62.0442   85.2789   16.4971 O.3     1  UNL1       -0.3819
     39 H          61.9352   85.2791   15.5333 H       1  UNL1        0.2104
@<TRIPOS>BOND
     1    25    26    1
     2    26    13    1
     3    13    14   ar
     4    14    15   ar
     5    15    16    1
     6    15    17   ar
     7    17    18   ar
     8    18    19    1
     9    18    20   ar
    10    20     1    1
    11     1     2   ar
    12     2     3   ar
    13     3     4   ar
    14     4     5   ar
    15     5     6   ar
    16     5     7    1
    17     7    35    1
    18    35    36    1
    19    36    37    1
    20    37    38    1
    21     7     8   am
    22     8     9    2
    23     8    10    1
    24    10    11    1
    25    10    27    1
    26    27    28   ar
    27    28    29   ar
    28    29    30    1
    29    29    31   ar
    30    31    32   ar
    31    32    33    1
    32    32    34   ar
    33    10    12    1
    34    20    13   ar
    35     6     1   ar
    36    34    27   ar
    37    12     4    1
    38    16    21    1
    39    16    22    1
    40    19    23    1
    41    19    24    1
    42    38    39    1
@<TRIPOS>MOLECULE
*****
 39 42 0 0 0
SMALL
GASTEIGER

@<TRIPOS>ATOM
      1 C          62.6687   84.2460   12.5712 C.ar    1  UNL1        0.0053
      2 C          61.9916   84.9113   11.4098 C.ar    1  UNL1        0.0033
      3 C          62.1072   86.3952   11.2239 C.ar    1  UNL1        0.0382
      4 C          62.8998   87.2138   12.1994 C.ar    1  UNL1        0.1529
      5 C          63.5768   86.5485   13.3608 C.ar    1  UNL1        0.0881
      6 C          63.4613   85.0646   13.5467 C.ar    1  UNL1        0.0181
      7 N          64.3694   87.3671   14.3364 N.am    1  UNL1       -0.2528
      8 C          64.4850   88.8510   14.1505 C.2     1  UNL1        0.2697
      9 O          65.2776   89.6696   15.1261 O.2     1  UNL1       -0.2704
     10 C          63.8079   89.5164   12.9891 C.3     1  UNL1        0.2199
     11 C          63.3509   90.5963   12.0536 C.3     1  UNL1        0.0579
     12 O          63.0153   88.6978   12.0135 O.3     1  UNL1       -0.4686
     13 C          62.8654   81.8369   11.6183 C.ar    1  UNL1        0.0645
     14 N          62.7499   80.3530   11.8041 N.ar    1  UNL1       -0.2183
     15 C          62.3222   79.7940   13.1288 C.ar    1  UNL1        0.2145
     16 N          62.2067   78.3101   13.3147 N.pl3   1  UNL1       -0.3274
     17 N          62.0100   80.7191   14.2676 N.ar    1  UNL1       -0.1995
     18 C          62.1255   82.2031   14.0817 C.ar    1  UNL1        0.1293
     19 N          61.8133   83.1281   15.2205 N.pl3   1  UNL1       -0.3425
     20 C          62.5532   82.7620   12.7571 C.ar    1  UNL1        0.0449
     21 H          62.4116   77.7030   12.5672 H       1  UNL1        0.1452
     22 H          61.9260   77.9433   14.1841 H       1  UNL1        0.1452
     23 H          61.5326   82.7613   16.0899 H       1  UNL1        0.1437
     24 H          61.8891   84.1021   15.0985 H       1  UNL1        0.1437
     25 C          64.6760   82.9520   10.1255 C.3     1  UNL1        0.0067
     26 C          63.2931   82.3959   10.2936 C.3     1  UNL1        0.0460
     27 C          64.4418   90.7100   13.6397 C.ar    1  UNL1        0.0264
     28 C          64.1565   91.0192   15.0795 C.ar    1  UNL1        0.0293
     29 C          64.7904   92.2129   15.7302 C.ar    1  UNL1        0.1422
     30 F          64.5050   92.5220   17.1701 F       1  UNL1       -0.2041
     31 C          65.7096   93.0973   14.9411 C.ar    1  UNL1        0.0592
     32 C          65.9949   92.7881   13.5014 C.ar    1  UNL1        0.1422
     33 F          66.9142   93.6726   12.7122 F       1  UNL1       -0.2041
     34 C          65.3610   91.5945   12.8506 C.ar    1  UNL1        0.0293
     35 C          65.0465   86.7018   15.4978 C.3     1  UNL1        0.1010
     36 C          64.2474   85.8671   16.4542 C.3     1  UNL1        0.0536
     37 C          63.0533   86.4552   17.1459 C.3     1  UNL1        0.1389
     38 O          61.6883   85.8829   16.9025 O.3     1  UNL1       -0.3819
     39 H          61.4332   86.0367   15.9794 H       1  UNL1        0.2104
@<TRIPOS>BOND
     1    25    26    1
     2    26    13    1
     3    13    14   ar
     4    14    15   ar
     5    15    16    1
     6    15    17   ar
     7    17    18   ar
     8    18    19    1
     9    18    20   ar
    10    20     1    1
    11     1     2   ar
    12     2     3   ar
    13     3     4   ar
    14     4     5   ar
    15     5     6   ar
    16     5     7    1
    17     7    35    1
    18    35    36    1
    19    36    37    1
    20    37    38    1
    21     7     8   am
    22     8     9    2
    23     8    10    1
    24    10    11    1
    25    10    27    1
    26    27    28   ar
    27    28    29   ar
    28    29    30    1
    29    29    31   ar
    30    31    32   ar
    31    32    33    1
    32    32    34   ar
    33    10    12    1
    34    20    13   ar
    35     6     1   ar
    36    34    27   ar
    37    12     4    1
    38    16    21    1
    39    16    22    1
    40    19    23    1
    41    19    24    1
    42    38    39    1
@<TRIPOS>MOLECULE
*****
 39 42 0 0 0
SMALL
GASTEIGER

@<TRIPOS>ATOM
      1 C          63.6550   89.0041   13.7452 C.ar    1  UNL1        0.0053
      2 C          63.1200   89.2590   12.3672 C.ar    1  UNL1        0.0033
      3 C          62.7615   88.1063   11.4768 C.ar    1  UNL1        0.0382
      4 C          62.9380   86.6988   11.9644 C.ar    1  UNL1        0.1529
      5 C          63.4730   86.4439   13.3424 C.ar    1  UNL1        0.0881
      6 C          63.8315   87.5966   14.2327 C.ar    1  UNL1        0.0181
      7 N          63.6494   85.0364   13.8299 N.am    1  UNL1       -0.2528
      8 C          63.2909   83.8837   12.9396 C.2     1  UNL1        0.2697
      9 O          63.4674   82.4762   13.4271 O.2     1  UNL1       -0.2704
     10 C          62.7559   84.1386   11.5615 C.3     1  UNL1        0.2199
     11 C          62.2173   83.8725   10.1871 C.3     1  UNL1        0.0579
     12 O          62.5795   85.5461   11.0740 O.3     1  UNL1       -0.4686
     13 C          64.9576   91.2157   14.1482 C.ar    1  UNL1        0.0645
     14 N          65.3161   92.3683   15.0386 N.ar    1  UNL1       -0.2183
     15 C          64.7306   92.4621   16.4165 C.ar    1  UNL1        0.2145
     16 N          65.0892   93.6148   17.3068 N.pl3   1  UNL1       -0.3274
     17 N          63.7866   91.4032   16.9039 N.ar    1  UNL1       -0.1995
     18 C          63.4280   90.2505   16.0134 C.ar    1  UNL1        0.1293
     19 N          62.4840   89.1917   16.5008 N.pl3   1  UNL1       -0.3425
     20 C          64.0135   90.1568   14.6356 C.ar    1  UNL1        0.0449
     21 H          65.7088   94.3097   16.9869 H       1  UNL1        0.1452
     22 H          64.7049   93.6763   18.2111 H       1  UNL1        0.1452
     23 H          62.0997   89.2532   17.4051 H       1  UNL1        0.1437
     24 H          62.2487   88.4351   15.9164 H       1  UNL1        0.1437
     25 C          65.3887   92.2642   11.8105 C.3     1  UNL1        0.0067
     26 C          65.5431   91.1218   12.7703 C.3     1  UNL1        0.0460
     27 C          62.7453   82.6387   11.5718 C.ar    1  UNL1        0.0264
     28 C          63.2901   81.8768   10.4002 C.ar    1  UNL1        0.0293
     29 C          63.2795   80.3768   10.4105 C.ar    1  UNL1        0.1422
     30 F          63.8244   79.6150    9.2388 F       1  UNL1       -0.2041
     31 C          62.7241   79.6388   11.5923 C.ar    1  UNL1        0.0592
     32 C          62.1793   80.4007   12.7638 C.ar    1  UNL1        0.1422
     33 F          61.6239   79.6627   13.9457 F       1  UNL1       -0.2041
     34 C          62.1899   81.9006   12.7537 C.ar    1  UNL1        0.0293
     35 C          64.1844   84.7815   15.2079 C.3     1  UNL1        0.1010
     36 C          63.2402   84.6410   16.3649 C.3     1  UNL1        0.0536
     37 C          62.8426   85.8496   17.1595 C.3     1  UNL1        0.1389
     38 O          61.4123   86.3016   17.1722 O.3     1  UNL1       -0.3819
     39 H          61.1598   86.6006   16.2847 H       1  UNL1        0.2104
@<TRIPOS>BOND
     1    25    26    1
     2    26    13    1
     3    13    14   ar
     4    14    15   ar
     5    15    16    1
     6    15    17   ar
     7    17    18   ar
     8    18    19    1
     9    18    20   ar
    10    20     1    1
    11     1     2   ar
    12     2     3   ar
    13     3     4   ar
    14     4     5   ar
    15     5     6   ar
    16     5     7    1
    17     7    35    1
    18    35    36    1
    19    36    37    1
    20    37    38    1
    21     7     8   am
    22     8     9    2
    23     8    10    1
    24    10    11    1
    25    10    27    1
    26    27    28   ar
    27    28    29   ar
    28    29    30    1
    29    29    31   ar
    30    31    32   ar
    31    32    33    1
    32    32    34   ar
    33    10    12    1
    34    20    13   ar
    35     6     1   ar
    36    34    27   ar
    37    12     4    1
    38    16    21    1
    39    16    22    1
    40    19    23    1
    41    19    24    1
    42    38    39    1
@<TRIPOS>MOLECULE
*****
 39 42 0 0 0
SMALL
GASTEIGER

@<TRIPOS>ATOM
      1 C          62.7805   84.1498   11.7735 C.ar    1  UNL1        0.0053
      2 C          62.0250   84.9676   10.7684 C.ar    1  UNL1        0.0033
      3 C          62.0500   86.4652   10.8489 C.ar    1  UNL1        0.0382
      4 C          62.8306   87.1450   11.9345 C.ar    1  UNL1        0.1529
      5 C          63.5861   86.3273   12.9396 C.ar    1  UNL1        0.0881
      6 C          63.5611   84.8297   12.8591 C.ar    1  UNL1        0.0181
      7 N          64.3667   87.0071   14.0252 N.am    1  UNL1       -0.2528
      8 C          64.3917   88.5047   14.1057 C.2     1  UNL1        0.2697
      9 O          65.1723   89.1845   15.1913 O.2     1  UNL1       -0.2704
     10 C          63.6361   89.3226   13.1005 C.3     1  UNL1        0.2199
     11 C          63.0852   90.5210   12.3862 C.3     1  UNL1        0.0579
     12 O          62.8556   88.6427   12.0149 O.3     1  UNL1       -0.4686
     13 C          62.1815   81.8499   12.8231 C.ar    1  UNL1        0.0645
     14 N          62.1565   80.3523   12.7427 N.ar    1  UNL1       -0.2183
     15 C          62.7056   79.6569   11.5323 C.ar    1  UNL1        0.2145
     16 N          62.6806   78.1593   11.4519 N.pl3   1  UNL1       -0.3274
     17 N          63.2796   80.4591   10.4023 N.ar    1  UNL1       -0.1995
     18 C          63.3046   81.9568   10.4827 C.ar    1  UNL1        0.1293
     19 N          63.8786   82.7591    9.3527 N.pl3   1  UNL1       -0.3425
     20 C          62.7556   82.6522   11.6931 C.ar    1  UNL1        0.0449
     21 H          62.3038   77.6327   12.1935 H       1  UNL1        0.1452
     22 H          63.0409   77.7029   10.6575 H       1  UNL1        0.1452
     23 H          64.2389   82.3027    8.5583 H       1  UNL1        0.1437
     24 H          63.8950   83.7420    9.4055 H       1  UNL1        0.1437
     25 C          62.5196   82.8084   15.2141 C.3     1  UNL1        0.0067
     26 C          61.6325   82.5453   14.0335 C.3     1  UNL1        0.0460
     27 C          64.2253   90.4186   13.9380 C.ar    1  UNL1        0.0264
     28 C          63.6629   90.7081   15.2981 C.ar    1  UNL1        0.0293
     29 C          64.2522   91.8041   16.1357 C.ar    1  UNL1        0.1422
     30 F          63.6896   92.0936   17.4958 F       1  UNL1       -0.2041
     31 C          65.4038   92.6107   15.6132 C.ar    1  UNL1        0.0592
     32 C          65.9663   92.3212   14.2531 C.ar    1  UNL1        0.1422
     33 F          67.1180   93.1277   13.7306 F       1  UNL1       -0.2041
     34 C          65.3771   91.2251   13.4155 C.ar    1  UNL1        0.0293
     35 C          65.1223   86.1893   15.0303 C.3     1  UNL1        0.1010
     36 C          64.4038   85.5924   16.2040 C.3     1  UNL1        0.0536
     37 C          63.2336   86.3087   16.8105 C.3     1  UNL1        0.1389
     38 O          61.8754   85.6722   16.7965 O.3     1  UNL1       -0.3819
     39 H          61.5631   85.5969   15.8813 H       1  UNL1        0.2104
@<TRIPOS>BOND
     1    25    26    1
     2    26    13    1
     3    13    14   ar
     4    14    15   ar
     5    15    16    1
     6    15    17   ar
     7    17    18   ar
     8    18    19    1
     9    18    20   ar
    10    20     1    1
    11     1     2   ar
    12     2     3   ar
    13     3     4   ar
    14     4     5   ar
    15     5     6   ar
    16     5     7    1
    17     7    35    1
    18    35    36    1
    19    36    37    1
    20    37    38    1
    21     7     8   am
    22     8     9    2
    23     8    10    1
    24    10    11    1
    25    10    27    1
    26    27    28   ar
    27    28    29   ar
    28    29    30    1
    29    29    31   ar
    30    31    32   ar
    31    32    33    1
    32    32    34   ar
    33    10    12    1
    34    20    13   ar
    35     6     1   ar
    36    34    27   ar
    37    12     4    1
    38    16    21    1
    39    16    22    1
    40    19    23    1
    41    19    24    1
    42    38    39    1
