@<TRIPOS>MOLECULE
*****
 28 31 0 0 0
SMALL
GASTEIGER

@<TRIPOS>ATOM
      1 C          65.5495   91.9694   13.8318 C.3     1  UNL1        0.1420
      2 C          65.9470   91.5865   15.2266 C.3     1  UNL1        0.0293
      3 C          66.9444   92.4182   15.9771 C.3     1  UNL1        0.0313
      4 C          67.5444   93.6327   15.3329 C.3     1  UNL1        0.1108
      5 O          68.5419   94.4644   16.0835 O.3     1  UNL1       -0.3845
      6 C          67.1469   94.0155   13.9381 C.3     1  UNL1        0.0349
      7 C          66.1494   93.1839   13.1876 C.3     1  UNL1        0.0708
      8 C          65.7519   93.5667   11.7927 C.3     1  UNL1        0.2075
      9 O          64.7544   92.7350   11.0422 O.3     1  UNL1       -0.4733
     10 C          64.1544   91.5205   11.6864 C.ar    1  UNL1        0.1654
     11 C          63.1569   90.6888   10.9358 C.ar    1  UNL1        0.1737
     12 F          62.7594   91.0716    9.5411 F       1  UNL1       -0.2010
     13 C          62.5570   89.4743   11.5800 C.ar    1  UNL1        0.0351
     14 C          62.9545   89.0915   12.9749 C.ar    1  UNL1        0.0319
     15 C          63.9520   89.9232   13.7254 C.ar    1  UNL1        0.1407
     16 F          64.1146   89.2659   15.0639 F       1  UNL1       -0.2043
     17 C          64.5519   91.1377   13.0812 C.ar    1  UNL1        0.0616
     18 H          68.6856   94.0814   16.9630 H       1  UNL1        0.2103
     19 O          63.5599   91.1863   14.8404 O.2     1  UNL1       -0.1684
     20 S          64.9495   90.7549   14.4760 S.O2    1  UNL1        0.0093
     21 O          65.4016   90.1010   14.5359 O.2     1  UNL1       -0.1684
     22 C          64.3495   89.5404   15.1203 C.ar    1  UNL1        0.1059
     23 C          64.7471   88.1709   14.6551 C.ar    1  UNL1        0.0192
     24 C          64.1471   86.9564   15.2993 C.ar    1  UNL1        0.0127
     25 C          63.1496   87.1114   16.4087 C.ar    1  UNL1        0.0578
     26 CL         62.5496   85.8969   17.0529 Cl      1  UNL1       -0.0822
     27 C          62.7520   88.4809   16.8739 C.ar    1  UNL1        0.0127
     28 C          63.3519   89.6954   16.2297 C.ar    1  UNL1        0.0192
@<TRIPOS>BOND
     1    19    20    2
     2    20    21    2
     3    20    22    1
     4    22    23   ar
     5    23    24   ar
     6    24    25   ar
     7    25    26    1
     8    25    27   ar
     9    27    28   ar
    10    20     1    1
    11     1     2    1
    12     2     3    1
    13     3     4    1
    14     4     5    1
    15     4     6    1
    16     6     7    1
    17     7     8    1
    18     8     9    1
    19     9    10    1
    20    10    11   ar
    21    11    12    1
    22    11    13   ar
    23    13    14   ar
    24    14    15   ar
    25    15    16    1
    26    15    17   ar
    27    28    22   ar
    28     7     1    1
    29    17    10   ar
    30    17     1    1
    31     5    18    1
@<TRIPOS>MOLECULE
*****
 28 31 0 0 0
SMALL
GASTEIGER

@<TRIPOS>ATOM
      1 C          62.3528   88.0362   11.4586 C.3     1  UNL1        0.1420
      2 C          62.2434   89.5247   11.3088 C.3     1  UNL1        0.0293
      3 C          61.4670   90.1083   10.1658 C.3     1  UNL1        0.0313
      4 C          60.7999   89.2035    9.1726 C.3     1  UNL1        0.1108
      5 O          60.0235   89.7872    8.0296 O.3     1  UNL1       -0.3845
      6 C          60.9093   87.7150    9.3225 C.3     1  UNL1        0.0349
      7 C          61.6857   87.1314   10.4655 C.3     1  UNL1        0.0708
      8 C          61.7951   85.6429   10.6154 C.3     1  UNL1        0.2075
      9 O          62.5715   85.0592   11.7584 O.3     1  UNL1       -0.4733
     10 C          63.2385   85.9641   12.7516 C.ar    1  UNL1        0.1654
     11 C          64.0150   85.3804   13.8946 C.ar    1  UNL1        0.1737
     12 F          64.1243   83.8919   14.0445 F       1  UNL1       -0.2010
     13 C          64.6821   86.2852   14.8878 C.ar    1  UNL1        0.0351
     14 C          64.5727   87.7737   14.7378 C.ar    1  UNL1        0.0319
     15 C          63.7963   88.3573   13.5948 C.ar    1  UNL1        0.1407
     16 F          63.8918   89.8465   13.7478 F       1  UNL1       -0.2043
     17 C          63.1292   87.4525   12.6017 C.ar    1  UNL1        0.0616
     18 H          60.0525   90.7554    8.0800 H       1  UNL1        0.2103
     19 O          61.8791   89.6454   13.1245 O.2     1  UNL1       -0.1684
     20 S          63.0198   88.9411   12.4518 S.O2    1  UNL1        0.0093
     21 O          63.8160   88.9321   12.4905 O.2     1  UNL1       -0.1684
     22 C          63.6869   89.8459   13.4449 C.ar    1  UNL1        0.1059
     23 C          64.9071   90.6236   13.0496 C.ar    1  UNL1        0.0192
     24 C          65.5741   91.5284   14.0427 C.ar    1  UNL1        0.0127
     25 C          65.0210   91.6555   15.4312 C.ar    1  UNL1        0.0578
     26 CL         65.6880   92.5603   16.4243 Cl      1  UNL1       -0.0822
     27 C          63.8007   90.8778   15.8266 C.ar    1  UNL1        0.0127
     28 C          63.1337   89.9730   14.8334 C.ar    1  UNL1        0.0192
@<TRIPOS>BOND
     1    19    20    2
     2    20    21    2
     3    20    22    1
     4    22    23   ar
     5    23    24   ar
     6    24    25   ar
     7    25    26    1
     8    25    27   ar
     9    27    28   ar
    10    20     1    1
    11     1     2    1
    12     2     3    1
    13     3     4    1
    14     4     5    1
    15     4     6    1
    16     6     7    1
    17     7     8    1
    18     8     9    1
    19     9    10    1
    20    10    11   ar
    21    11    12    1
    22    11    13   ar
    23    13    14   ar
    24    14    15   ar
    25    15    16    1
    26    15    17   ar
    27    28    22   ar
    28     7     1    1
    29    17    10   ar
    30    17     1    1
    31     5    18    1
@<TRIPOS>MOLECULE
*****
 28 31 0 0 0
SMALL
GASTEIGER

@<TRIPOS>ATOM
      1 C          62.0475   87.1461   11.0681 C.3     1  UNL1        0.1420
      2 C          61.5196   85.9038   10.4140 C.3     1  UNL1        0.0293
      3 C          60.6461   86.0092    9.1992 C.3     1  UNL1        0.0313
      4 C          60.3006   87.3568    8.6384 C.3     1  UNL1        0.1108
      5 O          59.4271   87.4622    7.4235 O.3     1  UNL1       -0.3845
      6 C          60.8285   88.5991    9.2926 C.3     1  UNL1        0.0349
      7 C          61.7020   88.4938   10.5074 C.3     1  UNL1        0.0708
      8 C          62.2300   89.7361   11.1616 C.3     1  UNL1        0.2075
      9 O          63.1034   89.6307   12.3765 O.3     1  UNL1       -0.4733
     10 C          63.4490   88.2830   12.9372 C.ar    1  UNL1        0.1654
     11 C          64.3225   88.1777   14.1521 C.ar    1  UNL1        0.1737
     12 F          64.8504   89.4200   14.8063 F       1  UNL1       -0.2010
     13 C          64.6680   86.8300   14.7128 C.ar    1  UNL1        0.0351
     14 C          64.1400   85.5877   14.0586 C.ar    1  UNL1        0.0319
     15 C          63.2665   85.6931   12.8438 C.ar    1  UNL1        0.1407
     16 F          62.9245   84.2847   12.4571 F       1  UNL1       -0.2043
     17 C          62.9210   87.0408   12.2831 C.ar    1  UNL1        0.0616
     18 H          59.1746   86.5732    7.1288 H       1  UNL1        0.2103
     19 O          63.1336   85.1206   10.5144 O.2     1  UNL1       -0.1684
     20 S          62.3930   85.7984   11.6289 S.O2    1  UNL1        0.0093
     21 O          62.1615   85.6322   12.3733 O.2     1  UNL1       -0.1684
     22 C          62.7385   84.4507   12.1896 C.ar    1  UNL1        0.1059
     23 C          61.9646   83.9007   13.3508 C.ar    1  UNL1        0.0192
     24 C          62.3101   82.5530   13.9115 C.ar    1  UNL1        0.0127
     25 C          63.4296   81.7554   13.3110 C.ar    1  UNL1        0.0578
     26 CL         63.7751   80.4077   13.8718 Cl      1  UNL1       -0.0822
     27 C          64.2036   82.3055   12.1498 C.ar    1  UNL1        0.0127
     28 C          63.8581   83.6531   11.5891 C.ar    1  UNL1        0.0192
@<TRIPOS>BOND
     1    19    20    2
     2    20    21    2
     3    20    22    1
     4    22    23   ar
     5    23    24   ar
     6    24    25   ar
     7    25    26    1
     8    25    27   ar
     9    27    28   ar
    10    20     1    1
    11     1     2    1
    12     2     3    1
    13     3     4    1
    14     4     5    1
    15     4     6    1
    16     6     7    1
    17     7     8    1
    18     8     9    1
    19     9    10    1
    20    10    11   ar
    21    11    12    1
    22    11    13   ar
    23    13    14   ar
    24    14    15   ar
    25    15    16    1
    26    15    17   ar
    27    28    22   ar
    28     7     1    1
    29    17    10   ar
    30    17     1    1
    31     5    18    1
@<TRIPOS>MOLECULE
*****
 28 31 0 0 0
SMALL
GASTEIGER

@<TRIPOS>ATOM
      1 C          64.2425   91.2518   12.2018 C.3     1  UNL1        0.1420
      2 C          64.0268   91.4713   10.7338 C.3     1  UNL1        0.0293
      3 C          63.0771   90.5920    9.9756 C.3     1  UNL1        0.0313
      4 C          62.3431   89.4932   10.6855 C.3     1  UNL1        0.1108
      5 O          61.3934   88.6138    9.9272 O.3     1  UNL1       -0.3845
      6 C          62.5588   89.2737   12.1535 C.3     1  UNL1        0.0349
      7 C          63.5085   90.1530   12.9117 C.3     1  UNL1        0.0708
      8 C          63.7242   89.9336   14.3799 C.3     1  UNL1        0.2075
      9 O          64.6739   90.8129   15.1380 O.3     1  UNL1       -0.4733
     10 C          65.4079   91.9117   14.4282 C.ar    1  UNL1        0.1654
     11 C          66.3576   92.7910   15.1864 C.ar    1  UNL1        0.1737
     12 F          66.5733   92.5716   16.6545 F       1  UNL1       -0.2010
     13 C          67.0916   93.8898   14.4765 C.ar    1  UNL1        0.0351
     14 C          66.8758   94.1093   13.0084 C.ar    1  UNL1        0.0319
     15 C          65.9262   93.2299   12.2502 C.ar    1  UNL1        0.1407
     16 F          65.9520   93.7192   10.8325 F       1  UNL1       -0.2043
     17 C          65.1922   92.1312   12.9601 C.ar    1  UNL1        0.0616
     18 H          61.3712   88.8883    8.9971 H       1  UNL1        0.2103
     19 O          66.4224   91.9884   11.6593 O.2     1  UNL1       -0.1684
     20 S          64.9765   92.3506   11.4919 S.O2    1  UNL1        0.0093
     21 O          64.5463   92.9285   11.1508 O.2     1  UNL1       -0.1684
     22 C          65.7104   93.4494   10.7821 C.ar    1  UNL1        0.1059
     23 C          65.1939   94.8564   10.8410 C.ar    1  UNL1        0.0192
     24 C          65.9279   95.9552   10.1312 C.ar    1  UNL1        0.0127
     25 C          67.1784   95.6470    9.3623 C.ar    1  UNL1        0.0578
     26 CL         67.9123   96.7458    8.6524 Cl      1  UNL1       -0.0822
     27 C          67.6950   94.2399    9.3033 C.ar    1  UNL1        0.0127
     28 C          66.9610   93.1411   10.0132 C.ar    1  UNL1        0.0192
@<TRIPOS>BOND
     1    19    20    2
     2    20    21    2
     3    20    22    1
     4    22    23   ar
     5    23    24   ar
     6    24    25   ar
     7    25    26    1
     8    25    27   ar
     9    27    28   ar
    10    20     1    1
    11     1     2    1
    12     2     3    1
    13     3     4    1
    14     4     5    1
    15     4     6    1
    16     6     7    1
    17     7     8    1
    18     8     9    1
    19     9    10    1
    20    10    11   ar
    21    11    12    1
    22    11    13   ar
    23    13    14   ar
    24    14    15   ar
    25    15    16    1
    26    15    17   ar
    27    28    22   ar
    28     7     1    1
    29    17    10   ar
    30    17     1    1
    31     5    18    1
@<TRIPOS>MOLECULE
*****
 28 31 0 0 0
SMALL
GASTEIGER

@<TRIPOS>ATOM
      1 C          63.2400   85.0597   13.1118 C.3     1  UNL1        0.1420
      2 C          62.5233   84.0651   12.2475 C.3     1  UNL1        0.0293
      3 C          62.5497   82.6077   12.6013 C.3     1  UNL1        0.0313
      4 C          63.2928   82.1449   13.8193 C.3     1  UNL1        0.1108
      5 O          63.3192   80.6874   14.1730 O.3     1  UNL1       -0.3845
      6 C          64.0095   83.1395   14.6836 C.3     1  UNL1        0.0349
      7 C          63.9831   84.5969   14.3298 C.3     1  UNL1        0.0708
      8 C          64.6999   85.5916   15.1942 C.3     1  UNL1        0.2075
      9 O          64.6735   87.0490   14.8404 O.3     1  UNL1       -0.4733
     10 C          63.9304   87.5118   13.6224 C.ar    1  UNL1        0.1654
     11 C          63.9040   88.9694   13.2687 C.ar    1  UNL1        0.1737
     12 F          64.6207   89.9640   14.1330 F       1  UNL1       -0.2010
     13 C          63.1609   89.4322   12.0506 C.ar    1  UNL1        0.0351
     14 C          62.4442   88.4375   11.1863 C.ar    1  UNL1        0.0319
     15 C          62.4706   86.9801   11.5401 C.ar    1  UNL1        0.1407
     16 F          61.6677   86.2832   10.4819 F       1  UNL1       -0.2043
     17 C          63.2137   86.5172   12.7581 C.ar    1  UNL1        0.0616
     18 H          62.8110   80.1860   13.5163 H       1  UNL1        0.2103
     19 O          63.3393   85.0410   10.7499 O.2     1  UNL1       -0.1684
     20 S          62.4969   85.5225   11.8938 S.O2    1  UNL1        0.0093
     21 O          61.8172   85.9251   12.0005 O.2     1  UNL1       -0.1684
     22 C          61.7538   85.9854   10.6758 C.ar    1  UNL1        0.1059
     23 C          62.2962   85.6897    9.3089 C.ar    1  UNL1        0.0192
     24 C          61.5531   86.1526    8.0909 C.ar    1  UNL1        0.0127
     25 C          60.2676   86.9110    8.2397 C.ar    1  UNL1        0.0578
     26 CL         59.5245   87.3738    7.0217 Cl      1  UNL1       -0.0822
     27 C          59.7252   87.2067    9.6066 C.ar    1  UNL1        0.0127
     28 C          60.4683   86.7439   10.8246 C.ar    1  UNL1        0.0192
@<TRIPOS>BOND
     1    19    20    2
     2    20    21    2
     3    20    22    1
     4    22    23   ar
     5    23    24   ar
     6    24    25   ar
     7    25    26    1
     8    25    27   ar
     9    27    28   ar
    10    20     1    1
    11     1     2    1
    12     2     3    1
    13     3     4    1
    14     4     5    1
    15     4     6    1
    16     6     7    1
    17     7     8    1
    18     8     9    1
    19     9    10    1
    20    10    11   ar
    21    11    12    1
    22    11    13   ar
    23    13    14   ar
    24    14    15   ar
    25    15    16    1
    26    15    17   ar
    27    28    22   ar
    28     7     1    1
    29    17    10   ar
    30    17     1    1
    31     5    18    1
