@<TRIPOS>MOLECULE
*****
 45 50 0 0 0
SMALL
GASTEIGER

@<TRIPOS>ATOM
      1 C          60.6465   88.4618    9.3710 C.ar    1  UNL1        0.0531
      2 C          60.3525   87.0038    9.1772 C.ar    1  UNL1        0.0058
      3 C          60.9718   85.9862   10.0888 C.ar    1  UNL1        0.0160
      4 C          61.8850   86.4266   11.1941 C.ar    1  UNL1        0.0648
      5 C          62.1791   87.8847   11.3880 C.ar    1  UNL1       -0.0061
      6 C          61.5598   88.9024   10.4764 C.ar    1  UNL1        0.0015
      7 C          63.1115   88.0184   12.5554 C.3     1  UNL1        0.0419
      8 C          62.7379   89.3249   11.9202 C.3     1  UNL1        0.0311
      9 C          63.2910   90.6086   12.4644 C.3     1  UNL1        0.1512
     10 S          64.2176   90.5858   13.6438 S.O2    1  UNL1       -0.0100
     11 O          65.1238   91.0759   14.7340 O.2     1  UNL1       -0.1730
     12 O          64.1588   92.0625   13.3872 O.2     1  UNL1       -0.1730
     13 C          64.5912   89.2793   14.2789 C.3     1  UNL1        0.1512
     14 C          64.0381   87.9956   13.7347 C.3     1  UNL1        0.0311
     15 C          63.3937   86.6428   13.0831 C.3     1  UNL1        0.0997
     16 N          62.6357   85.6591   12.2418 N.pl3   1  UNL1       -0.1923
     17 O          59.6556   90.8330    8.9888 O.2     1  UNL1       -0.2701
     18 C          60.0273   89.4795    8.4595 C.2     1  UNL1        0.2461
     19 N          59.7797   89.1437    7.0186 N.am    1  UNL1       -0.2956
     20 H          60.0237   88.2554    6.6713 H       1  UNL1        0.1501
     21 C          59.1605   90.1613    6.1071 C.3     1  UNL1        0.1369
     22 C          60.0060   90.8725    5.0925 C.ar    1  UNL1        0.0893
     23 N          61.4640   90.5430    4.9676 N.ar    1  UNL1       -0.2457
     24 C          62.3095   91.2541    3.9532 C.ar    1  UNL1        0.1024
     25 C          61.6970   92.2949    3.0634 C.ar    1  UNL1        0.0913
     26 C          60.2390   92.6246    3.1883 C.ar    1  UNL1        0.0181
     27 C          59.3935   91.9133    4.2028 C.ar    1  UNL1        0.0728
     28 CL         57.9355   92.2429    4.3277 Cl      1  UNL1       -0.0810
     29 C          62.5425   93.0061    2.0489 C.3     1  UNL1        0.4200
     30 F          63.3880   93.7173    1.0343 F       1  UNL1       -0.1658
     31 F          63.6519   92.0246    2.2854 F       1  UNL1       -0.1658
     32 F          61.4331   93.9877    1.8124 F       1  UNL1       -0.1658
     33 C          64.2785   86.3097   14.2475 C.3     1  UNL1        0.0203
     34 C          65.6097   85.8749   14.7848 C.3     1  UNL1        0.0018
     35 C          64.4799   86.1673   15.7271 C.3     1  UNL1        0.0018
     36 S          62.6295   84.1695   12.4173 S.O2    1  UNL1        0.0765
     37 O          63.3250   84.0111   11.0978 O.2     1  UNL1       -0.1497
     38 O          61.9340   84.3279   13.7369 O.2     1  UNL1       -0.1497
     39 C          62.6233   82.6798   12.5928 C.ar    1  UNL1        0.1256
     40 C          62.9733   81.7872   11.4393 C.ar    1  UNL1        0.0225
     41 C          62.9671   80.2975   11.6148 C.ar    1  UNL1        0.0310
     42 C          62.6109   79.7004   12.9439 C.ar    1  UNL1        0.1402
     43 F          62.6046   78.2107   13.1194 F       1  UNL1       -0.2042
     44 C          62.2608   80.5930   14.0976 C.ar    1  UNL1        0.0310
     45 C          62.2670   82.0827   13.9220 C.ar    1  UNL1        0.0225
@<TRIPOS>BOND
     1    17    18    2
     2    18    19   am
     3    19    21    1
     4    21    22    1
     5    22    23   ar
     6    23    24   ar
     7    24    25   ar
     8    25    29    1
     9    29    30    1
    10    29    31    1
    11    29    32    1
    12    25    26   ar
    13    26    27   ar
    14    27    28    1
    15    18     1    1
    16     1     2   ar
    17     2     3   ar
    18     3     4   ar
    19     4     5   ar
    20     5     6   ar
    21     5     7    1
    22     7     8    1
    23     8     9    1
    24     9    10    1
    25    10    11    2
    26    10    12    2
    27    10    13    1
    28    13    14    1
    29     7    15    1
    30    15    33    1
    31    33    34    1
    32    34    35    1
    33    15    16    1
    34    16    36    1
    35    36    37    2
    36    36    38    2
    37    36    39    1
    38    39    40   ar
    39    40    41   ar
    40    41    42   ar
    41    42    43    1
    42    42    44   ar
    43    44    45   ar
    44    27    22   ar
    45     6     1   ar
    46    14     7    1
    47    35    33    1
    48    45    39   ar
    49    16     4    1
    50    19    20    1
