@<TRIPOS>MOLECULE
*****
 41 45 0 0 0
SMALL
GASTEIGER

@<TRIPOS>ATOM
      1 C          64.0499   87.7360   14.4051 C.ar    1  UNL1        0.1486
      2 N          64.4995   86.4334   14.9977 N.ar    1  UNL1       -0.2266
      3 C          64.2100   85.3476   14.0040 C.ar    1  UNL1        0.1010
      4 C          64.4375   83.8655   14.0421 C.ar    1  UNL1        0.0526
      5 C          64.0365   83.0149   12.8735 C.ar    1  UNL1        0.1690
      6 F          64.2640   81.5327   12.9115 F       1  UNL1       -0.2017
      7 C          63.4080   83.6465   11.6668 C.ar    1  UNL1        0.1689
      8 F          63.0070   82.7958   10.4981 F       1  UNL1       -0.2017
      9 C          63.1805   85.1286   11.6287 C.ar    1  UNL1        0.0507
     10 C          63.5815   85.9792   12.7973 C.ar    1  UNL1        0.0816
     11 N          63.4825   87.4552   13.0452 N.ar    1  UNL1       -0.3046
     12 C          64.3504   91.7764   16.3633 C.ar    1  UNL1        0.2275
     13 C          65.3118   91.3963   15.2766 C.ar    1  UNL1        0.0580
     14 C          65.2116   90.0495   14.6238 C.ar    1  UNL1        0.0125
     15 C          64.1500   89.0828   15.0579 C.ar    1  UNL1        0.0875
     16 C          63.1886   89.4629   16.1446 C.ar    1  UNL1        0.2303
     17 N          63.2888   90.8097   16.7974 N.ar    1  UNL1       -0.1766
     18 C          63.2113   93.8162   17.4999 C.3     1  UNL1        0.2542
     19 O          64.4505   93.1232   17.0161 O.3     1  UNL1       -0.4561
     20 O          62.1269   88.4961   16.5787 O.3     1  UNL1       -0.4560
     21 C          62.4641   87.3921   17.5365 C.3     1  UNL1        0.2542
     22 C          62.9158   88.4721   12.0993 C.3     1  UNL1        0.1628
     23 C          61.8754   88.0668   11.0977 C.3     1  UNL1        0.0297
     24 C          62.2886   87.4434    9.7975 C.3     1  UNL1        0.0024
     25 C          61.2482   87.0381    8.7958 C.3     1  UNL1        0.0001
     26 C          59.7945   87.2563    9.0944 C.3     1  UNL1        0.0000
     27 C          59.3813   87.8797   10.3946 C.3     1  UNL1        0.0001
     28 C          60.4216   88.2850   11.3962 C.3     1  UNL1        0.0024
     29 C          63.3894   89.8943   12.1549 C.2     1  UNL1        0.2431
     30 O          62.9949   91.0930   12.9657 O.2     1  UNL1       -0.2731
     31 N          64.4974   90.3516   11.2532 N.am    1  UNL1       -0.3044
     32 H          64.9138   89.7184   10.6248 H       1  UNL1        0.1494
     33 C          64.9710   91.7738   11.3089 C.3     1  UNL1        0.0716
     34 C          65.7909   92.2461   12.4728 C.3     1  UNL1        0.0199
     35 C          66.2646   93.6683   12.5285 C.3     1  UNL1        0.0072
     36 C          65.9183   94.6182   11.4204 C.3     1  UNL1        0.0367
     37 C          65.0984   94.1457   10.2565 C.3     1  UNL1        0.0072
     38 C          64.6248   92.7236   10.2007 C.3     1  UNL1        0.0199
     39 C          66.3919   96.0403   11.4761 C.2     1  UNL1        0.0500
     40 O          66.1729   96.8558   12.7159 O.co2   1  UNL1       -0.5492
     41 O          67.0846   96.6470   10.2920 O.co2   1  UNL1       -0.5492
@<TRIPOS>UNITY_ATOM_ATTR
40 1
charge -1
@<TRIPOS>BOND
     1    18    19    1
     2    19    12    1
     3    12    13   ar
     4    13    14   ar
     5    14    15   ar
     6    15     1    1
     7     1     2   ar
     8     2     3   ar
     9     3     4   ar
    10     4     5   ar
    11     5     6    1
    12     5     7   ar
    13     7     8    1
    14     7     9   ar
    15     9    10   ar
    16    10    11   ar
    17    11    22    1
    18    22    29    1
    19    29    30    2
    20    29    31   am
    21    33    31    1
    22    33    34    1
    23    34    35    1
    24    35    36    1
    25    36    39    1
    26    39    40   ar
    27    39    41   ar
    28    36    37    1
    29    37    38    1
    30    22    23    1
    31    23    24    1
    32    24    25    1
    33    25    26    1
    34    26    27    1
    35    27    28    1
    36    15    16   ar
    37    16    20    1
    38    20    21    1
    39    16    17   ar
    40    17    12   ar
    41    11     1   ar
    42    38    33    1
    43    28    23    1
    44    10     3   ar
    45    31    32    1
@<TRIPOS>MOLECULE
*****
 41 45 0 0 0
SMALL
GASTEIGER

@<TRIPOS>ATOM
      1 C          61.6764   86.6336    9.9290 C.ar    1  UNL1        0.1486
      2 N          62.0373   85.1975    9.6896 N.ar    1  UNL1       -0.2266
      3 C          62.7667   84.6948   10.9000 C.ar    1  UNL1        0.1010
      4 C          63.3607   83.3577   11.2306 C.ar    1  UNL1        0.0526
      5 C          64.0445   83.1461   12.5488 C.ar    1  UNL1        0.1690
      6 F          64.6385   81.8089   12.8794 F       1  UNL1       -0.2017
      7 C          64.1344   84.2715   13.5363 C.ar    1  UNL1        0.1689
      8 F          64.8182   84.0598   14.8545 F       1  UNL1       -0.2017
      9 C          63.5404   85.6086   13.2058 C.ar    1  UNL1        0.0507
     10 C          62.8566   85.8203   11.8876 C.ar    1  UNL1        0.0816
     11 N          62.1828   87.0185   11.2874 N.ar    1  UNL1       -0.3046
     12 C          59.4632   89.3163    7.0732 C.ar    1  UNL1        0.2275
     13 C          60.2475   89.9104    8.2054 C.ar    1  UNL1        0.0580
     14 C          60.9852   89.0162    9.1573 C.ar    1  UNL1        0.0125
     15 C          60.9387   87.5278    8.9770 C.ar    1  UNL1        0.0875
     16 C          60.1545   86.9337    7.8448 C.ar    1  UNL1        0.2303
     17 N          59.4167   87.8279    6.8929 N.ar    1  UNL1       -0.1766
     18 C          59.4870   91.0625    5.1497 C.3     1  UNL1        0.2542
     19 O          58.7255   90.2105    6.1213 O.3     1  UNL1       -0.4561
     20 O          60.1079   85.4452    7.6645 O.3     1  UNL1       -0.4560
     21 C          61.0043   84.7830    6.6606 C.3     1  UNL1        0.2542
     22 C          62.0403   88.3652   11.9325 C.3     1  UNL1        0.1628
     23 C          60.7082   89.0545   11.9434 C.3     1  UNL1        0.0297
     24 C          60.6045   90.4927   11.5299 C.3     1  UNL1        0.0024
     25 C          59.2724   91.1821   11.5407 C.3     1  UNL1        0.0001
     26 C          58.0438   90.4333   11.9650 C.3     1  UNL1        0.0000
     27 C          58.1475   88.9952   12.3784 C.3     1  UNL1        0.0001
     28 C          59.4796   88.3058   12.3676 C.3     1  UNL1        0.0024
     29 C          63.2301   89.0226   12.5669 C.2     1  UNL1        0.2431
     30 O          64.3495   88.5342   13.4377 O.2     1  UNL1       -0.2731
     31 N          63.4723   90.4893   12.3662 N.am    1  UNL1       -0.3044
     32 H          62.8504   91.0204   11.8181 H       1  UNL1        0.1494
     33 C          64.6620   91.1466   13.0005 C.3     1  UNL1        0.0716
     34 C          65.5640   92.0186   12.1784 C.3     1  UNL1        0.0199
     35 C          66.7539   92.6760   12.8127 C.3     1  UNL1        0.0072
     36 C          67.0416   92.4613   14.2691 C.3     1  UNL1        0.0367
     37 C          66.1396   91.5892   15.0911 C.3     1  UNL1        0.0072
     38 C          64.9498   90.9319   14.4569 C.3     1  UNL1        0.0199
     39 C          68.2314   93.1186   14.9034 C.2     1  UNL1        0.0500
     40 O          69.6134   92.7998   14.4153 O.co2   1  UNL1       -0.5492
     41 O          68.0390   94.0948   16.0259 O.co2   1  UNL1       -0.5492
@<TRIPOS>UNITY_ATOM_ATTR
40 1
charge -1
@<TRIPOS>BOND
     1    18    19    1
     2    19    12    1
     3    12    13   ar
     4    13    14   ar
     5    14    15   ar
     6    15     1    1
     7     1     2   ar
     8     2     3   ar
     9     3     4   ar
    10     4     5   ar
    11     5     6    1
    12     5     7   ar
    13     7     8    1
    14     7     9   ar
    15     9    10   ar
    16    10    11   ar
    17    11    22    1
    18    22    29    1
    19    29    30    2
    20    29    31   am
    21    33    31    1
    22    33    34    1
    23    34    35    1
    24    35    36    1
    25    36    39    1
    26    39    40   ar
    27    39    41   ar
    28    36    37    1
    29    37    38    1
    30    22    23    1
    31    23    24    1
    32    24    25    1
    33    25    26    1
    34    26    27    1
    35    27    28    1
    36    15    16   ar
    37    16    20    1
    38    20    21    1
    39    16    17   ar
    40    17    12   ar
    41    11     1   ar
    42    38    33    1
    43    28    23    1
    44    10     3   ar
    45    31    32    1
@<TRIPOS>MOLECULE
*****
 41 45 0 0 0
SMALL
GASTEIGER

@<TRIPOS>ATOM
      1 C          63.8007   85.9846   13.9520 C.ar    1  UNL1        0.1486
      2 N          64.2781   86.9485   14.9975 N.ar    1  UNL1       -0.2266
      3 C          64.2088   88.3310   14.4196 C.ar    1  UNL1        0.1010
      4 C          64.5522   89.6753   14.9895 C.ar    1  UNL1        0.0526
      5 C          64.3754   90.9102   14.1566 C.ar    1  UNL1        0.1690
      6 F          64.7187   92.2547   14.7264 F       1  UNL1       -0.2017
      7 C          63.8552   90.8008   12.7540 C.ar    1  UNL1        0.1689
      8 F          63.6783   92.0358   11.9211 F       1  UNL1       -0.2017
      9 C          63.5118   89.4564   12.1842 C.ar    1  UNL1        0.0507
     10 C          63.6886   88.2215   13.0170 C.ar    1  UNL1        0.0816
     11 N          63.4364   86.7714   12.7280 N.ar    1  UNL1       -0.3046
     12 C          63.5123   81.5170   14.4076 C.ar    1  UNL1        0.2275
     13 C          64.6674   82.1223   13.6665 C.ar    1  UNL1        0.0580
     14 C          64.7635   83.6115   13.5146 C.ar    1  UNL1        0.0125
     15 C          63.7046   84.4954   14.1039 C.ar    1  UNL1        0.0875
     16 C          62.5495   83.8901   14.8450 C.ar    1  UNL1        0.2303
     17 N          62.4533   82.4009   14.9969 N.ar    1  UNL1       -0.1766
     18 C          62.4601   79.2472   13.7071 C.3     1  UNL1        0.2542
     19 O          63.4161   80.0278   14.5595 O.3     1  UNL1       -0.4561
     20 O          61.4905   84.7740   15.4343 O.3     1  UNL1       -0.4560
     21 C          61.7722   85.5490   16.6873 C.3     1  UNL1        0.2542
     22 C          62.9120   86.2071   11.4409 C.3     1  UNL1        0.1628
     23 C          63.0034   84.7337   11.1755 C.3     1  UNL1        0.0297
     24 C          61.9539   83.8078   11.7152 C.3     1  UNL1        0.0024
     25 C          62.0454   82.3343   11.4498 C.3     1  UNL1        0.0001
     26 C          63.1863   81.7867   10.6446 C.3     1  UNL1        0.0000
     27 C          64.2358   82.7126   10.1048 C.3     1  UNL1        0.0001
     28 C          64.1443   84.1861   10.3703 C.3     1  UNL1        0.0024
     29 C          62.2959   87.1164   10.4192 C.2     1  UNL1        0.2431
     30 O          62.7754   88.3312    9.6814 O.2     1  UNL1       -0.2731
     31 N          60.8955   86.8690    9.9422 N.am    1  UNL1       -0.3044
     32 H          60.3806   86.1098   10.2997 H       1  UNL1        0.1494
     33 C          60.2796   87.7783    8.9206 C.3     1  UNL1        0.0716
     34 C          59.6256   87.2012    7.7002 C.3     1  UNL1        0.0199
     35 C          59.0096   88.1105    6.6784 C.3     1  UNL1        0.0072
     36 C          59.0477   89.5968    6.8771 C.3     1  UNL1        0.0367
     37 C          59.7017   90.1738    8.0975 C.3     1  UNL1        0.0072
     38 C          60.3176   89.2646    9.1192 C.3     1  UNL1        0.0199
     39 C          58.4317   90.5060    5.8554 C.2     1  UNL1        0.0500
     40 O          56.9413   90.5503    5.6921 O.co2   1  UNL1       -0.5492
     41 O          59.3063   91.3711    4.9971 O.co2   1  UNL1       -0.5492
@<TRIPOS>UNITY_ATOM_ATTR
40 1
charge -1
@<TRIPOS>BOND
     1    18    19    1
     2    19    12    1
     3    12    13   ar
     4    13    14   ar
     5    14    15   ar
     6    15     1    1
     7     1     2   ar
     8     2     3   ar
     9     3     4   ar
    10     4     5   ar
    11     5     6    1
    12     5     7   ar
    13     7     8    1
    14     7     9   ar
    15     9    10   ar
    16    10    11   ar
    17    11    22    1
    18    22    29    1
    19    29    30    2
    20    29    31   am
    21    33    31    1
    22    33    34    1
    23    34    35    1
    24    35    36    1
    25    36    39    1
    26    39    40   ar
    27    39    41   ar
    28    36    37    1
    29    37    38    1
    30    22    23    1
    31    23    24    1
    32    24    25    1
    33    25    26    1
    34    26    27    1
    35    27    28    1
    36    15    16   ar
    37    16    20    1
    38    20    21    1
    39    16    17   ar
    40    17    12   ar
    41    11     1   ar
    42    38    33    1
    43    28    23    1
    44    10     3   ar
    45    31    32    1
@<TRIPOS>MOLECULE
*****
 41 45 0 0 0
SMALL
GASTEIGER

@<TRIPOS>ATOM
      1 C          63.1281   89.6314   11.6847 C.ar    1  UNL1        0.1486
      2 N          63.7218   90.9485   11.2814 N.ar    1  UNL1       -0.2266
      3 C          64.6836   91.3707   12.3522 C.ar    1  UNL1        0.1010
      4 C          65.5588   92.5805   12.4950 C.ar    1  UNL1        0.0526
      5 C          66.4348   92.7340   13.7029 C.ar    1  UNL1        0.1690
      6 F          67.3101   93.9438   13.8458 F       1  UNL1       -0.2017
      7 C          66.4356   91.6778   14.7680 C.ar    1  UNL1        0.1689
      8 F          67.3116   91.8314   15.9760 F       1  UNL1       -0.2017
      9 C          65.5604   90.4680   14.6252 C.ar    1  UNL1        0.0507
     10 C          64.6844   90.3145   13.4173 C.ar    1  UNL1        0.0816
     11 N          63.7230   89.2395   13.0047 N.ar    1  UNL1       -0.3046
     12 C          60.0949   87.2700    9.3451 C.ar    1  UNL1        0.2275
     13 C          61.5251   87.3085    8.8946 C.ar    1  UNL1        0.0580
     14 C          62.5362   88.0956    9.6745 C.ar    1  UNL1        0.0125
     15 C          62.1170   88.8442   10.9048 C.ar    1  UNL1        0.0875
     16 C          60.6868   88.8058   11.3553 C.ar    1  UNL1        0.2303
     17 N          59.6758   88.0186   10.5755 N.ar    1  UNL1       -0.1766
     18 C          59.4195   85.9838    7.1911 C.3     1  UNL1        0.2542
     19 O          59.0838   86.4829    8.5652 O.3     1  UNL1       -0.4561
     20 O          60.2676   89.5544   12.5857 O.3     1  UNL1       -0.4560
     21 C          58.8328   89.5358   13.0225 C.3     1  UNL1        0.2542
     22 C          63.4113   87.9918   13.7767 C.3     1  UNL1        0.1628
     23 C          63.2835   88.0460   15.2702 C.3     1  UNL1        0.0297
     24 C          63.2113   89.3714   15.9691 C.3     1  UNL1        0.0024
     25 C          63.0834   89.4257   17.4627 C.3     1  UNL1        0.0001
     26 C          63.0278   88.1547   18.2573 C.3     1  UNL1        0.0000
     27 C          63.1000   86.8294   17.5585 C.3     1  UNL1        0.0001
     28 C          63.2278   86.7751   16.0649 C.3     1  UNL1        0.0024
     29 C          63.2275   86.6896   13.0551 C.2     1  UNL1        0.2431
     30 O          62.6239   86.3049   11.7369 O.2     1  UNL1       -0.2731
     31 N          63.7085   85.4126   13.6778 N.am    1  UNL1       -0.3044
     32 H          64.1449   85.4290   14.5602 H       1  UNL1        0.1494
     33 C          63.5247   84.1105   12.9562 C.3     1  UNL1        0.0716
     34 C          64.3661   83.7932   11.7556 C.3     1  UNL1        0.0199
     35 C          64.1822   82.4910   11.0339 C.3     1  UNL1        0.0072
     36 C          63.1570   81.5063   11.5128 C.3     1  UNL1        0.0367
     37 C          62.3157   81.8238   12.7134 C.3     1  UNL1        0.0072
     38 C          62.4995   83.1258   13.4351 C.3     1  UNL1        0.0199
     39 C          62.9732   80.2043   10.7911 C.2     1  UNL1        0.0500
     40 O          62.6748   78.9539   11.5642 O.co2   1  UNL1       -0.5492
     41 O          63.0877   80.1526    9.2964 O.co2   1  UNL1       -0.5492
@<TRIPOS>UNITY_ATOM_ATTR
40 1
charge -1
@<TRIPOS>BOND
     1    18    19    1
     2    19    12    1
     3    12    13   ar
     4    13    14   ar
     5    14    15   ar
     6    15     1    1
     7     1     2   ar
     8     2     3   ar
     9     3     4   ar
    10     4     5   ar
    11     5     6    1
    12     5     7   ar
    13     7     8    1
    14     7     9   ar
    15     9    10   ar
    16    10    11   ar
    17    11    22    1
    18    22    29    1
    19    29    30    2
    20    29    31   am
    21    33    31    1
    22    33    34    1
    23    34    35    1
    24    35    36    1
    25    36    39    1
    26    39    40   ar
    27    39    41   ar
    28    36    37    1
    29    37    38    1
    30    22    23    1
    31    23    24    1
    32    24    25    1
    33    25    26    1
    34    26    27    1
    35    27    28    1
    36    15    16   ar
    37    16    20    1
    38    20    21    1
    39    16    17   ar
    40    17    12   ar
    41    11     1   ar
    42    38    33    1
    43    28    23    1
    44    10     3   ar
    45    31    32    1
@<TRIPOS>MOLECULE
*****
 41 45 0 0 0
SMALL
GASTEIGER

@<TRIPOS>ATOM
      1 C          63.0107   90.4754   10.6733 C.ar    1  UNL1        0.1486
      2 N          63.5347   91.6627    9.9212 N.ar    1  UNL1       -0.2266
      3 C          64.5535   92.3458   10.7847 C.ar    1  UNL1        0.1010
      4 C          65.3986   93.5656   10.5663 C.ar    1  UNL1        0.0526
      5 C          66.3493   94.0203   11.6337 C.ar    1  UNL1        0.1690
      6 F          67.1945   95.2401   11.4153 F       1  UNL1       -0.2017
      7 C          66.4548   93.2551   12.9196 C.ar    1  UNL1        0.1689
      8 F          67.4056   93.7098   13.9870 F       1  UNL1       -0.2017
      9 C          65.6097   92.0353   13.1380 C.ar    1  UNL1        0.0507
     10 C          64.6590   91.5806   12.0706 C.ar    1  UNL1        0.0816
     11 N          63.7055   90.4247   12.0017 N.ar    1  UNL1       -0.3046
     12 C          59.9001   87.5751    9.2028 C.ar    1  UNL1        0.2275
     13 C          61.3238   87.4416    8.7497 C.ar    1  UNL1        0.0580
     14 C          62.3607   88.4084    9.2399 C.ar    1  UNL1        0.0125
     15 C          61.9738   89.5087   10.1831 C.ar    1  UNL1        0.0875
     16 C          60.5502   89.6421   10.6362 C.ar    1  UNL1        0.2303
     17 N          59.5133   88.6754   10.1460 N.ar    1  UNL1       -0.1766
     18 C          59.0114   85.9699    7.3634 C.3     1  UNL1        0.2542
     19 O          58.8633   86.6083    8.7126 O.3     1  UNL1       -0.4561
     20 O          60.1633   90.7425   11.5795 O.3     1  UNL1       -0.4560
     21 C          58.7322   91.1822   11.6722 C.3     1  UNL1        0.2542
     22 C          63.4855   89.3983   13.0732 C.3     1  UNL1        0.1628
     23 C          63.5213   89.8020   14.5173 C.3     1  UNL1        0.0297
     24 C          63.1561   88.8108   15.5824 C.3     1  UNL1        0.0024
     25 C          63.1918   89.2145   17.0266 C.3     1  UNL1        0.0001
     26 C          63.5927   90.6094   17.4058 C.3     1  UNL1        0.0000
     27 C          63.9579   91.6004   16.3407 C.3     1  UNL1        0.0001
     28 C          63.9221   91.1968   14.8965 C.3     1  UNL1        0.0024
     29 C          63.2298   87.9679   12.7004 C.2     1  UNL1        0.2431
     30 O          62.3757   87.2975   11.6655 O.2     1  UNL1       -0.2731
     31 N          63.9163   86.8637   13.4483 N.am    1  UNL1       -0.3044
     32 H          64.5348   87.0776   14.1838 H       1  UNL1        0.1494
     33 C          63.6606   85.4335   13.0755 C.3     1  UNL1        0.0716
     34 C          64.1070   84.3294   13.9875 C.3     1  UNL1        0.0199
     35 C          63.8512   82.8991   13.6147 C.3     1  UNL1        0.0072
     36 C          63.1491   82.5729   12.3300 C.3     1  UNL1        0.0367
     37 C          62.7026   83.6770   11.4181 C.3     1  UNL1        0.0072
     38 C          62.9584   85.1073   11.7908 C.3     1  UNL1        0.0199
     39 C          62.8933   81.1427   11.9572 C.2     1  UNL1        0.0500
     40 O          63.0306   80.7036   10.5295 O.co2   1  UNL1       -0.5492
     41 O          62.5001   80.1515   13.0122 O.co2   1  UNL1       -0.5492
@<TRIPOS>UNITY_ATOM_ATTR
40 1
charge -1
@<TRIPOS>BOND
     1    18    19    1
     2    19    12    1
     3    12    13   ar
     4    13    14   ar
     5    14    15   ar
     6    15     1    1
     7     1     2   ar
     8     2     3   ar
     9     3     4   ar
    10     4     5   ar
    11     5     6    1
    12     5     7   ar
    13     7     8    1
    14     7     9   ar
    15     9    10   ar
    16    10    11   ar
    17    11    22    1
    18    22    29    1
    19    29    30    2
    20    29    31   am
    21    33    31    1
    22    33    34    1
    23    34    35    1
    24    35    36    1
    25    36    39    1
    26    39    40   ar
    27    39    41   ar
    28    36    37    1
    29    37    38    1
    30    22    23    1
    31    23    24    1
    32    24    25    1
    33    25    26    1
    34    26    27    1
    35    27    28    1
    36    15    16   ar
    37    16    20    1
    38    20    21    1
    39    16    17   ar
    40    17    12   ar
    41    11     1   ar
    42    38    33    1
    43    28    23    1
    44    10     3   ar
    45    31    32    1
@<TRIPOS>MOLECULE
*****
 41 45 0 0 0
SMALL
GASTEIGER

@<TRIPOS>ATOM
      1 C          61.9053   86.1170   11.2957 C.ar    1  UNL1        0.1486
      2 N          62.1059   84.6611   11.5960 N.ar    1  UNL1       -0.2266
      3 C          62.9236   84.5547   12.8490 C.ar    1  UNL1        0.1010
      4 C          63.4301   83.3715   13.6195 C.ar    1  UNL1        0.0526
      5 C          64.2413   83.5785   14.8641 C.ar    1  UNL1        0.1690
      6 F          64.7478   82.3954   15.6346 F       1  UNL1       -0.2017
      7 C          64.5461   84.9686   15.3382 C.ar    1  UNL1        0.1689
      8 F          65.3573   85.1755   16.5828 F       1  UNL1       -0.2017
      9 C          64.0396   86.1517   14.5677 C.ar    1  UNL1        0.0507
     10 C          63.2284   85.9447   13.3231 C.ar    1  UNL1        0.0816
     11 N          62.5990   86.9103   12.3631 N.ar    1  UNL1       -0.3046
     12 C          59.6229   87.8078    7.8054 C.ar    1  UNL1        0.2275
     13 C          59.0017   87.7912    9.1705 C.ar    1  UNL1        0.0580
     14 C          59.7625   87.2276   10.3340 C.ar    1  UNL1        0.0125
     15 C          61.1445   86.6806   10.1322 C.ar    1  UNL1        0.0875
     16 C          61.7658   86.6972    8.7671 C.ar    1  UNL1        0.2303
     17 N          61.0050   87.2608    7.6036 N.ar    1  UNL1       -0.1766
     18 C          59.2091   89.7285    6.1055 C.3     1  UNL1        0.2542
     19 O          58.8622   88.3714    6.6419 O.3     1  UNL1       -0.4561
     20 O          63.1479   86.1502    8.5653 O.3     1  UNL1       -0.4560
     21 C          63.3358   84.7196    8.1553 C.3     1  UNL1        0.2542
     22 C          62.6538   88.4065   12.4545 C.3     1  UNL1        0.1628
     23 C          61.5898   89.2373   11.8007 C.3     1  UNL1        0.0297
     24 C          60.2874   89.4777   12.5051 C.3     1  UNL1        0.0024
     25 C          59.2233   90.3086   11.8513 C.3     1  UNL1        0.0001
     26 C          59.4616   90.8991   10.4932 C.3     1  UNL1        0.0000
     27 C          60.7639   90.6587    9.7889 C.3     1  UNL1        0.0001
     28 C          61.8280   89.8279   10.4426 C.3     1  UNL1        0.0024
     29 C          63.7727   89.0720   13.1997 C.2     1  UNL1        0.2431
     30 O          64.7784   88.6008   14.2080 O.2     1  UNL1       -0.2731
     31 N          64.0571   90.5285   12.9818 N.am    1  UNL1       -0.3044
     32 H          63.5095   91.0478   12.3496 H       1  UNL1        0.1494
     33 C          65.1760   91.1939   13.7270 C.3     1  UNL1        0.0716
     34 C          65.0045   91.5530   15.1733 C.3     1  UNL1        0.0199
     35 C          66.1234   92.2184   15.9186 C.3     1  UNL1        0.0072
     36 C          67.4137   92.5246   15.2177 C.3     1  UNL1        0.0367
     37 C          67.5851   92.1654   13.7714 C.3     1  UNL1        0.0072
     38 C          66.4663   91.5001   13.0261 C.3     1  UNL1        0.0199
     39 C          68.5326   93.1899   15.9629 C.2     1  UNL1        0.0500
     40 O          68.5715   94.6848   16.0796 O.co2   1  UNL1       -0.5492
     41 O          69.6126   92.3602   16.5915 O.co2   1  UNL1       -0.5492
@<TRIPOS>UNITY_ATOM_ATTR
40 1
charge -1
@<TRIPOS>BOND
     1    18    19    1
     2    19    12    1
     3    12    13   ar
     4    13    14   ar
     5    14    15   ar
     6    15     1    1
     7     1     2   ar
     8     2     3   ar
     9     3     4   ar
    10     4     5   ar
    11     5     6    1
    12     5     7   ar
    13     7     8    1
    14     7     9   ar
    15     9    10   ar
    16    10    11   ar
    17    11    22    1
    18    22    29    1
    19    29    30    2
    20    29    31   am
    21    33    31    1
    22    33    34    1
    23    34    35    1
    24    35    36    1
    25    36    39    1
    26    39    40   ar
    27    39    41   ar
    28    36    37    1
    29    37    38    1
    30    22    23    1
    31    23    24    1
    32    24    25    1
    33    25    26    1
    34    26    27    1
    35    27    28    1
    36    15    16   ar
    37    16    20    1
    38    20    21    1
    39    16    17   ar
    40    17    12   ar
    41    11     1   ar
    42    38    33    1
    43    28    23    1
    44    10     3   ar
    45    31    32    1
@<TRIPOS>MOLECULE
*****
 41 45 0 0 0
SMALL
GASTEIGER

@<TRIPOS>ATOM
      1 C          64.4074   90.1686   14.3836 C.ar    1  UNL1        0.1486
      2 N          65.3353   91.3316   14.5742 N.ar    1  UNL1       -0.2266
      3 C          65.5442   91.9816   13.2386 C.ar    1  UNL1        0.1010
      4 C          66.3586   93.1684   12.8163 C.ar    1  UNL1        0.0526
      5 C          66.3742   93.5938   11.3780 C.ar    1  UNL1        0.1690
      6 F          67.1886   94.7806   10.9557 F       1  UNL1       -0.2017
      7 C          65.5754   92.8325   10.3620 C.ar    1  UNL1        0.1689
      8 F          65.5910   93.2580    8.9236 F       1  UNL1       -0.2017
      9 C          64.7610   91.6457   10.7843 C.ar    1  UNL1        0.0507
     10 C          64.7454   91.2203   12.2225 C.ar    1  UNL1        0.0816
     11 N          64.0428   90.0998   12.9302 N.ar    1  UNL1       -0.3046
     12 C          62.9698   87.3761   17.6063 C.ar    1  UNL1        0.2275
     13 C          63.6104   86.8248   16.3671 C.ar    1  UNL1        0.0580
     14 C          64.0896   87.7556   15.2928 C.ar    1  UNL1        0.0125
     15 C          63.9282   89.2377   15.4579 C.ar    1  UNL1        0.0875
     16 C          63.2877   89.7890   16.6971 C.ar    1  UNL1        0.2303
     17 N          62.8085   88.8582   17.7713 N.ar    1  UNL1       -0.1766
     18 C          62.6235   86.8334   20.1233 C.3     1  UNL1        0.2542
     19 O          62.4906   86.4453   18.6805 O.3     1  UNL1       -0.4561
     20 O          63.1263   91.2712   16.8621 O.3     1  UNL1       -0.4560
     21 C          64.3173   92.1240   17.1848 C.3     1  UNL1        0.2542
     22 C          63.1350   89.0881   12.2959 C.3     1  UNL1        0.1628
     23 C          62.0123   89.5393   11.4095 C.3     1  UNL1        0.0297
     24 C          62.0763   89.2890    9.9319 C.3     1  UNL1        0.0024
     25 C          60.9535   89.7402    9.0454 C.3     1  UNL1        0.0001
     26 C          59.7667   90.4417    9.6366 C.3     1  UNL1        0.0000
     27 C          59.7027   90.6919   11.1142 C.3     1  UNL1        0.0001
     28 C          60.8254   90.2407   12.0006 C.3     1  UNL1        0.0024
     29 C          63.3501   87.6251   12.5479 C.2     1  UNL1        0.2431
     30 O          64.4381   86.8301   13.2067 O.2     1  UNL1       -0.2731
     31 N          62.3274   86.6272   12.0916 N.am    1  UNL1       -0.3044
     32 H          61.5150   86.9324   11.6266 H       1  UNL1        0.1494
     33 C          62.5424   85.1642   12.3436 C.3     1  UNL1        0.0716
     34 C          62.9099   84.2539   11.2095 C.3     1  UNL1        0.0199
     35 C          63.1250   82.7909   11.4615 C.3     1  UNL1        0.0072
     36 C          62.9726   82.2383   12.8476 C.3     1  UNL1        0.0367
     37 C          62.6051   83.1487   13.9817 C.3     1  UNL1        0.0072
     38 C          62.3900   84.6116   13.7298 C.3     1  UNL1        0.0199
     39 C          63.1877   80.7754   13.0997 C.2     1  UNL1        0.0500
     40 O          63.8525   80.3222   14.3656 O.co2   1  UNL1       -0.5492
     41 O          62.7380   79.7656   12.0857 O.co2   1  UNL1       -0.5492
@<TRIPOS>UNITY_ATOM_ATTR
40 1
charge -1
@<TRIPOS>BOND
     1    18    19    1
     2    19    12    1
     3    12    13   ar
     4    13    14   ar
     5    14    15   ar
     6    15     1    1
     7     1     2   ar
     8     2     3   ar
     9     3     4   ar
    10     4     5   ar
    11     5     6    1
    12     5     7   ar
    13     7     8    1
    14     7     9   ar
    15     9    10   ar
    16    10    11   ar
    17    11    22    1
    18    22    29    1
    19    29    30    2
    20    29    31   am
    21    33    31    1
    22    33    34    1
    23    34    35    1
    24    35    36    1
    25    36    39    1
    26    39    40   ar
    27    39    41   ar
    28    36    37    1
    29    37    38    1
    30    22    23    1
    31    23    24    1
    32    24    25    1
    33    25    26    1
    34    26    27    1
    35    27    28    1
    36    15    16   ar
    37    16    20    1
    38    20    21    1
    39    16    17   ar
    40    17    12   ar
    41    11     1   ar
    42    38    33    1
    43    28    23    1
    44    10     3   ar
    45    31    32    1
@<TRIPOS>MOLECULE
*****
 41 45 0 0 0
SMALL
GASTEIGER

@<TRIPOS>ATOM
      1 C          62.7025   83.3629   14.1631 C.ar    1  UNL1        0.1486
      2 N          62.6124   81.8845   14.4000 N.ar    1  UNL1       -0.2266
      3 C          62.6658   81.1974   13.0677 C.ar    1  UNL1        0.1010
      4 C          62.6182   79.7483   12.6831 C.ar    1  UNL1        0.0526
      5 C          62.6938   79.3530   11.2382 C.ar    1  UNL1        0.1690
      6 F          62.6462   77.9039   10.8535 F       1  UNL1       -0.2017
      7 C          62.8171   80.4068   10.1778 C.ar    1  UNL1        0.1689
      8 F          62.8927   80.0114    8.7328 F       1  UNL1       -0.2017
      9 C          62.8647   81.8558   10.5624 C.ar    1  UNL1        0.0507
     10 C          62.7890   82.2511   12.0073 C.ar    1  UNL1        0.0816
     11 N          62.8117   83.5895   12.6843 N.ar    1  UNL1       -0.3046
     12 C          62.6540   86.5575   17.3320 C.ar    1  UNL1        0.2275
     13 C          61.3909   86.2033   16.6047 C.ar    1  UNL1        0.0580
     14 C          61.4070   85.1384   15.5484 C.ar    1  UNL1        0.0125
     15 C          62.6863   84.4278   15.2194 C.ar    1  UNL1        0.0875
     16 C          63.9495   84.7820   15.9467 C.ar    1  UNL1        0.2303
     17 N          63.9333   85.8469   17.0030 N.ar    1  UNL1       -0.1766
     18 C          62.6508   87.2403   19.8388 C.3     1  UNL1        0.2542
     19 O          62.6378   87.6224   18.3883 O.3     1  UNL1       -0.4561
     20 O          65.2289   84.0713   15.6176 O.3     1  UNL1       -0.4560
     21 C          66.1896   84.6728   14.6352 C.3     1  UNL1        0.2542
     22 C          62.9239   84.9207   12.0022 C.3     1  UNL1        0.1628
     23 C          62.5084   85.0662   10.5683 C.3     1  UNL1        0.0297
     24 C          63.3992   84.5572    9.4740 C.3     1  UNL1        0.0024
     25 C          62.9837   84.7026    8.0400 C.3     1  UNL1        0.0001
     26 C          61.6774   85.3571    7.7004 C.3     1  UNL1        0.0000
     27 C          60.7867   85.8660    8.7947 C.3     1  UNL1        0.0001
     28 C          61.2021   85.7206   10.2286 C.3     1  UNL1        0.0024
     29 C          63.4517   86.1066   12.7541 C.2     1  UNL1        0.2431
     30 O          64.4335   86.2769   13.8752 O.2     1  UNL1       -0.2731
     31 N          62.9748   87.4863   12.4091 N.am    1  UNL1       -0.3044
     32 H          62.3154   87.6135   11.6891 H       1  UNL1        0.1494
     33 C          63.5025   88.6721   13.1609 C.3     1  UNL1        0.0716
     34 C          63.6006   90.0067   12.4834 C.3     1  UNL1        0.0199
     35 C          64.1284   91.1926   13.2352 C.3     1  UNL1        0.0072
     36 C          64.5581   91.0438   14.6646 C.3     1  UNL1        0.0367
     37 C          64.4600   89.7091   15.3421 C.3     1  UNL1        0.0072
     38 C          63.9322   88.5233   14.5903 C.3     1  UNL1        0.0199
     39 C          65.0858   92.2296   15.4165 C.2     1  UNL1        0.0500
     40 O          64.6202   92.4976   16.8170 O.co2   1  UNL1       -0.5492
     41 O          66.0793   93.1474   14.7679 O.co2   1  UNL1       -0.5492
@<TRIPOS>UNITY_ATOM_ATTR
40 1
charge -1
@<TRIPOS>BOND
     1    18    19    1
     2    19    12    1
     3    12    13   ar
     4    13    14   ar
     5    14    15   ar
     6    15     1    1
     7     1     2   ar
     8     2     3   ar
     9     3     4   ar
    10     4     5   ar
    11     5     6    1
    12     5     7   ar
    13     7     8    1
    14     7     9   ar
    15     9    10   ar
    16    10    11   ar
    17    11    22    1
    18    22    29    1
    19    29    30    2
    20    29    31   am
    21    33    31    1
    22    33    34    1
    23    34    35    1
    24    35    36    1
    25    36    39    1
    26    39    40   ar
    27    39    41   ar
    28    36    37    1
    29    37    38    1
    30    22    23    1
    31    23    24    1
    32    24    25    1
    33    25    26    1
    34    26    27    1
    35    27    28    1
    36    15    16   ar
    37    16    20    1
    38    20    21    1
    39    16    17   ar
    40    17    12   ar
    41    11     1   ar
    42    38    33    1
    43    28    23    1
    44    10     3   ar
    45    31    32    1
@<TRIPOS>MOLECULE
*****
 41 45 0 0 0
SMALL
GASTEIGER

@<TRIPOS>ATOM
      1 C          64.2139   90.8608   11.7663 C.ar    1  UNL1        0.1486
      2 N          63.6911   91.2935   10.4287 N.ar    1  UNL1       -0.2266
      3 C          62.5260   90.4155   10.0801 C.ar    1  UNL1        0.1010
      4 C          61.6192   90.3781    8.8858 C.ar    1  UNL1        0.0526
      5 C          60.5151   89.3653    8.8139 C.ar    1  UNL1        0.1690
      6 F          59.6083   89.3279    7.6195 F       1  UNL1       -0.2017
      7 C          60.3178   88.3899    9.9362 C.ar    1  UNL1        0.1689
      8 F          59.2137   87.3771    9.8642 F       1  UNL1       -0.2017
      9 C          61.2246   88.4272   11.1305 C.ar    1  UNL1        0.0507
     10 C          62.3286   89.4400   11.2024 C.ar    1  UNL1        0.0816
     11 N          63.3718   89.7153   12.2446 N.ar    1  UNL1       -0.3046
     12 C          67.6968   92.6797   13.9596 C.ar    1  UNL1        0.2275
     13 C          67.2017   91.3155   14.3385 C.ar    1  UNL1        0.0580
     14 C          66.0407   90.7092   13.6074 C.ar    1  UNL1        0.0125
     15 C          65.3749   91.4671   12.4974 C.ar    1  UNL1        0.0875
     16 C          65.8700   92.8314   12.1186 C.ar    1  UNL1        0.2303
     17 N          67.0310   93.4377   12.8497 N.ar    1  UNL1       -0.1766
     18 C          68.6558   93.8918   16.0480 C.3     1  UNL1        0.2542
     19 O          68.8578   93.2861   14.6907 O.3     1  UNL1       -0.4561
     20 O          65.2041   93.5894   11.0085 O.3     1  UNL1       -0.4560
     21 C          65.7521   94.9157   10.5720 C.3     1  UNL1        0.2542
     22 C          63.5429   88.9749   13.5379 C.3     1  UNL1        0.1628
     23 C          63.5949   89.7297   14.8330 C.3     1  UNL1        0.0297
     24 C          63.3819   89.0082   16.1307 C.3     1  UNL1        0.0024
     25 C          63.4339   89.7629   17.4259 C.3     1  UNL1        0.0001
     26 C          63.6989   91.2394   17.4234 C.3     1  UNL1        0.0000
     27 C          63.9118   91.9609   16.1258 C.3     1  UNL1        0.0001
     28 C          63.8598   91.2062   14.8306 C.3     1  UNL1        0.0024
     29 C          63.6620   87.4796   13.5360 C.2     1  UNL1        0.2431
     30 O          64.6434   86.5117   14.1275 O.2     1  UNL1       -0.2731
     31 N          62.6395   86.6467   12.8213 N.am    1  UNL1       -0.3044
     32 H          61.8902   87.0814   12.3535 H       1  UNL1        0.1494
     33 C          62.7586   85.1514   12.8195 C.3     1  UNL1        0.0716
     34 C          62.5448   84.3806   14.0884 C.3     1  UNL1        0.0199
     35 C          62.6640   82.8852   14.0867 C.3     1  UNL1        0.0072
     36 C          62.9969   82.1609   12.8161 C.3     1  UNL1        0.0367
     37 C          63.2106   82.9318   11.5472 C.3     1  UNL1        0.0072
     38 C          63.0915   84.4271   11.5489 C.3     1  UNL1        0.0199
     39 C          63.1160   80.6656   12.8143 C.2     1  UNL1        0.0500
     40 O          63.5141   79.9434   14.0672 O.co2   1  UNL1       -0.5492
     41 O          62.8371   79.8926   11.5594 O.co2   1  UNL1       -0.5492
@<TRIPOS>UNITY_ATOM_ATTR
40 1
charge -1
@<TRIPOS>BOND
     1    18    19    1
     2    19    12    1
     3    12    13   ar
     4    13    14   ar
     5    14    15   ar
     6    15     1    1
     7     1     2   ar
     8     2     3   ar
     9     3     4   ar
    10     4     5   ar
    11     5     6    1
    12     5     7   ar
    13     7     8    1
    14     7     9   ar
    15     9    10   ar
    16    10    11   ar
    17    11    22    1
    18    22    29    1
    19    29    30    2
    20    29    31   am
    21    33    31    1
    22    33    34    1
    23    34    35    1
    24    35    36    1
    25    36    39    1
    26    39    40   ar
    27    39    41   ar
    28    36    37    1
    29    37    38    1
    30    22    23    1
    31    23    24    1
    32    24    25    1
    33    25    26    1
    34    26    27    1
    35    27    28    1
    36    15    16   ar
    37    16    20    1
    38    20    21    1
    39    16    17   ar
    40    17    12   ar
    41    11     1   ar
    42    38    33    1
    43    28    23    1
    44    10     3   ar
    45    31    32    1
