@<TRIPOS>MOLECULE
*****
 31 33 0 0 0
SMALL
GASTEIGER

@<TRIPOS>ATOM
      1 C          63.5703   88.0128   13.1020 C.3     1  UNL1        0.1730
      2 C          64.3250   89.0827   13.8338 C.3     1  UNL1        0.0483
      3 C          64.3229   90.4902   13.3154 C.3     1  UNL1        0.0253
      4 C          65.0777   91.5602   14.0472 C.3     1  UNL1        0.0048
      5 C          63.5659   90.8279   12.0652 C.2     1  UNL1       -0.0305
      6 C          62.8112   89.7580   11.3334 C.2     1  UNL1       -0.0236
      7 C          62.0542   90.0956   10.0832 C.2     1  UNL1       -0.0091
      8 C          61.2994   89.0256    9.3514 C.2     1  UNL1       -0.0268
      9 C          61.3016   87.6181    9.8698 C.3     1  UNL1        0.0224
     10 C          60.5468   86.5481    9.1380 C.3     1  UNL1        0.0047
     11 C          62.0585   87.2804   11.1200 C.3     1  UNL1        0.0117
     12 C          62.8133   88.3504   11.8519 C.3     1  UNL1        0.0624
     13 O          63.5724   86.6052   13.6205 O.3     1  UNL1       -0.4519
     14 C          64.2124   86.2932   14.9407 C.2     1  UNL1        0.3158
     15 O          65.7031   86.1573   15.0381 O.2     1  UNL1       -0.2501
     16 C          63.3618   86.1170   16.1635 C.3     1  UNL1        0.0896
     17 C          63.2217   84.6556   15.8555 C.3     1  UNL1        0.0111
     18 C          63.5019   87.5783   16.4715 C.3     1  UNL1        0.0111
     19 C          62.6460   86.8932   18.5374 C.3     1  UNL1        0.0006
     20 C          62.5112   85.9407   17.3864 C.3     1  UNL1        0.0106
     21 C          62.0607   85.8729   11.6384 C.3     1  UNL1        0.0045
     22 C          62.9558   84.8445   11.0127 C.3     1  UNL1        0.0437
     23 C          62.8833   83.4148   11.4607 C.3     1  UNL1        0.1713
     24 C          62.6498   83.0930   12.9070 C.3     1  UNL1        0.0734
     25 C          62.5773   81.6633   13.3550 C.3     1  UNL1        0.1252
     26 O          62.3439   81.3414   14.8013 O.3     1  UNL1       -0.3838
     27 C          62.7383   80.5554   12.3566 C.3     1  UNL1        0.1388
     28 C          62.9718   80.8773   10.9102 C.2     1  UNL1        0.3194
     29 O          63.1327   79.7694    9.9119 O.2     1  UNL1       -0.2500
     30 O          63.0443   82.3070   10.4623 O.3     1  UNL1       -0.4521
     31 H          62.3247   80.3788   14.9193 H       1  UNL1        0.2104
@<TRIPOS>BOND
     1    19    20    1
     2    20    16    1
     3    16    17    1
     4    16    18    1
     5    16    14    1
     6    14    15    2
     7    14    13    1
     8     1    13    1
     9     1     2    1
    10     2     3    1
    11     3     4    1
    12     3     5    1
    13     5     6    2
    14     6     7    1
    15     7     8    2
    16     8     9    1
    17     9    10    1
    18     9    11    1
    19    11    21    1
    20    21    22    1
    21    23    22    1
    22    23    24    1
    23    24    25    1
    24    25    26    1
    25    25    27    1
    26    27    28    1
    27    28    29    2
    28    28    30    1
    29    11    12    1
    30    12     1    1
    31    12     6    1
    32    30    23    1
    33    26    31    1
@<TRIPOS>MOLECULE
*****
 31 33 0 0 0
SMALL
GASTEIGER

@<TRIPOS>ATOM
      1 C          63.2986   86.5006   12.6989 C.3     1  UNL1        0.1730
      2 C          63.3211   85.0011   12.6692 C.3     1  UNL1        0.0483
      3 C          62.6787   84.2637   11.5319 C.3     1  UNL1        0.0253
      4 C          62.7012   82.7641   11.5022 C.3     1  UNL1        0.0048
      5 C          62.0138   85.0258   10.4242 C.2     1  UNL1       -0.0305
      6 C          61.9913   86.5254   10.4539 C.2     1  UNL1       -0.0236
      7 C          61.3263   87.2876    9.3462 C.2     1  UNL1       -0.0091
      8 C          61.3038   88.7871    9.3759 C.2     1  UNL1       -0.0268
      9 C          61.9463   89.5244   10.5132 C.3     1  UNL1        0.0224
     10 C          61.9237   91.0240   10.5429 C.3     1  UNL1        0.0047
     11 C          62.6112   88.7623   11.6209 C.3     1  UNL1        0.0117
     12 C          62.6337   87.2627   11.5913 C.3     1  UNL1        0.0624
     13 O          63.9411   87.2379   13.8363 O.3     1  UNL1       -0.4519
     14 C          64.4177   86.4862   15.0436 C.2     1  UNL1        0.3158
     15 O          65.8100   85.9291   15.0789 O.2     1  UNL1       -0.2501
     16 C          63.5020   86.2914   16.2156 C.3     1  UNL1        0.0896
     17 C          63.6020   84.8043   16.0466 C.3     1  UNL1        0.0111
     18 C          63.4020   87.7785   16.3846 C.3     1  UNL1        0.0111
     19 C          62.6918   87.0006   18.5801 C.3     1  UNL1        0.0006
     20 C          62.5864   86.0966   17.3876 C.3     1  UNL1        0.0106
     21 C          63.2536   89.4997   12.7583 C.3     1  UNL1        0.0045
     22 C          64.0533   90.7404   12.4913 C.3     1  UNL1        0.0437
     23 C          64.8779   91.3510   13.5854 C.3     1  UNL1        0.1713
     24 C          66.3303   91.6463   13.3543 C.3     1  UNL1        0.0734
     25 C          67.1549   92.2569   14.4484 C.3     1  UNL1        0.1252
     26 O          68.6073   92.5521   14.2172 O.3     1  UNL1       -0.3838
     27 C          66.5272   92.5723   15.7737 C.3     1  UNL1        0.1388
     28 C          65.0748   92.2770   16.0049 C.2     1  UNL1        0.3194
     29 O          64.4471   92.5924   17.3302 O.2     1  UNL1       -0.2500
     30 O          64.2502   91.6664   14.9108 O.3     1  UNL1       -0.4521
     31 H          68.9896   92.9417   15.0190 H       1  UNL1        0.2104
@<TRIPOS>BOND
     1    19    20    1
     2    20    16    1
     3    16    17    1
     4    16    18    1
     5    16    14    1
     6    14    15    2
     7    14    13    1
     8     1    13    1
     9     1     2    1
    10     2     3    1
    11     3     4    1
    12     3     5    1
    13     5     6    2
    14     6     7    1
    15     7     8    2
    16     8     9    1
    17     9    10    1
    18     9    11    1
    19    11    21    1
    20    21    22    1
    21    23    22    1
    22    23    24    1
    23    24    25    1
    24    25    26    1
    25    25    27    1
    26    27    28    1
    27    28    29    2
    28    28    30    1
    29    11    12    1
    30    12     1    1
    31    12     6    1
    32    30    23    1
    33    26    31    1
@<TRIPOS>MOLECULE
*****
 31 33 0 0 0
SMALL
GASTEIGER

@<TRIPOS>ATOM
      1 C          62.3732   87.4716   10.9868 C.3     1  UNL1        0.1730
      2 C          62.2359   88.7784   10.2635 C.3     1  UNL1        0.0483
      3 C          62.8002   90.0314   10.8648 C.3     1  UNL1        0.0253
      4 C          62.6629   91.3383   10.1414 C.3     1  UNL1        0.0048
      5 C          63.5019   89.9775   12.1894 C.2     1  UNL1       -0.0305
      6 C          63.6392   88.6706   12.9127 C.2     1  UNL1       -0.0236
      7 C          64.3409   88.6167   14.2375 C.2     1  UNL1       -0.0091
      8 C          64.4782   87.3098   14.9608 C.2     1  UNL1       -0.0268
      9 C          63.9138   86.0569   14.3595 C.3     1  UNL1        0.0224
     10 C          64.0512   84.7500   15.0829 C.3     1  UNL1        0.0047
     11 C          63.2122   86.1108   13.0348 C.3     1  UNL1        0.0117
     12 C          63.0748   87.4177   12.3114 C.3     1  UNL1        0.0624
     13 O          61.8088   86.2186   10.3855 O.3     1  UNL1       -0.4519
     14 C          61.1385   86.2662    9.0445 C.2     1  UNL1        0.3158
     15 O          59.8629   87.0362    8.8705 O.2     1  UNL1       -0.2501
     16 C          61.7436   85.5439    7.8774 C.3     1  UNL1        0.0896
     17 C          60.4234   85.5867    7.1665 C.3     1  UNL1        0.0111
     18 C          63.0637   85.5011    8.5883 C.3     1  UNL1        0.0111
     19 C          61.4636   84.1372    5.7111 C.3     1  UNL1        0.0006
     20 C          62.3486   84.8216    6.7103 C.3     1  UNL1        0.0106
     21 C          62.6478   84.8578   12.4335 C.3     1  UNL1        0.0045
     22 C          63.5536   83.8868   11.7358 C.3     1  UNL1        0.0437
     23 C          63.2806   82.4141   11.8185 C.3     1  UNL1        0.1713
     24 C          63.2005   81.5947   10.5647 C.3     1  UNL1        0.0734
     25 C          62.9274   80.1221   10.6474 C.3     1  UNL1        0.1252
     26 O          62.8473   79.3026    9.3936 O.3     1  UNL1       -0.3838
     27 C          62.7345   79.4689   11.9838 C.3     1  UNL1        0.1388
     28 C          62.8147   80.2884   13.2377 C.2     1  UNL1        0.3194
     29 O          62.6217   79.6352   14.5741 O.2     1  UNL1       -0.2500
     30 O          63.0877   81.7610   13.1550 O.3     1  UNL1       -0.4521
     31 H          62.6660   78.3777    9.6229 H       1  UNL1        0.2104
@<TRIPOS>BOND
     1    19    20    1
     2    20    16    1
     3    16    17    1
     4    16    18    1
     5    16    14    1
     6    14    15    2
     7    14    13    1
     8     1    13    1
     9     1     2    1
    10     2     3    1
    11     3     4    1
    12     3     5    1
    13     5     6    2
    14     6     7    1
    15     7     8    2
    16     8     9    1
    17     9    10    1
    18     9    11    1
    19    11    21    1
    20    21    22    1
    21    23    22    1
    22    23    24    1
    23    24    25    1
    24    25    26    1
    25    25    27    1
    26    27    28    1
    27    28    29    2
    28    28    30    1
    29    11    12    1
    30    12     1    1
    31    12     6    1
    32    30    23    1
    33    26    31    1
@<TRIPOS>MOLECULE
*****
 31 33 0 0 0
SMALL
GASTEIGER

@<TRIPOS>ATOM
      1 C          64.3070   90.0633   13.9631 C.3     1  UNL1        0.1730
      2 C          65.3649   90.5644   14.9010 C.3     1  UNL1        0.0483
      3 C          66.2430   91.7115   14.4971 C.3     1  UNL1        0.0253
      4 C          67.3010   92.2125   15.4351 C.3     1  UNL1        0.0048
      5 C          66.0633   92.3575   13.1554 C.2     1  UNL1       -0.0305
      6 C          65.0054   91.8564   12.2175 C.2     1  UNL1       -0.0236
      7 C          64.8256   92.5025   10.8757 C.2     1  UNL1       -0.0091
      8 C          63.7676   92.0014    9.9378 C.2     1  UNL1       -0.0268
      9 C          62.8895   90.8544   10.3416 C.3     1  UNL1        0.0224
     10 C          61.8315   90.3533    9.4036 C.3     1  UNL1        0.0047
     11 C          63.0692   90.2083   11.6833 C.3     1  UNL1        0.0117
     12 C          64.1272   90.7094   12.6213 C.3     1  UNL1        0.0624
     13 O          63.4288   88.9163   14.3669 O.3     1  UNL1       -0.4519
     14 C          63.4337   88.4315   15.7864 C.2     1  UNL1        0.3158
     15 O          63.2554   89.4063   16.9124 O.2     1  UNL1       -0.2501
     16 C          63.6168   86.9720   16.0798 C.3     1  UNL1        0.0896
     17 C          64.3979   86.8144   14.8090 C.3     1  UNL1        0.0111
     18 C          62.8357   87.1295   17.3507 C.3     1  UNL1        0.0111
     19 C          64.1028   84.5555   15.2585 C.3     1  UNL1        0.0006
     20 C          63.7999   85.5124   16.3733 C.3     1  UNL1        0.0106
     21 C          62.1911   89.0613   12.0872 C.3     1  UNL1        0.0045
     22 C          62.5218   87.6690   11.6374 C.3     1  UNL1        0.0437
     23 C          61.9029   87.1178   10.3871 C.3     1  UNL1        0.1713
     24 C          62.6985   86.2152    9.4914 C.3     1  UNL1        0.0734
     25 C          62.0796   85.6641    8.2411 C.3     1  UNL1        0.1252
     26 O          62.8751   84.7614    7.3454 O.3     1  UNL1       -0.3838
     27 C          60.6652   86.0156    7.8865 C.3     1  UNL1        0.1388
     28 C          59.8696   86.9183    8.7822 C.2     1  UNL1        0.3194
     29 O          58.4551   87.2698    8.4276 O.2     1  UNL1       -0.2500
     30 O          60.4884   87.4694   10.0325 O.3     1  UNL1       -0.4521
     31 H          62.3309   84.4966    6.5874 H       1  UNL1        0.2104
@<TRIPOS>BOND
     1    19    20    1
     2    20    16    1
     3    16    17    1
     4    16    18    1
     5    16    14    1
     6    14    15    2
     7    14    13    1
     8     1    13    1
     9     1     2    1
    10     2     3    1
    11     3     4    1
    12     3     5    1
    13     5     6    2
    14     6     7    1
    15     7     8    2
    16     8     9    1
    17     9    10    1
    18     9    11    1
    19    11    21    1
    20    21    22    1
    21    23    22    1
    22    23    24    1
    23    24    25    1
    24    25    26    1
    25    25    27    1
    26    27    28    1
    27    28    29    2
    28    28    30    1
    29    11    12    1
    30    12     1    1
    31    12     6    1
    32    30    23    1
    33    26    31    1
@<TRIPOS>MOLECULE
*****
 31 33 0 0 0
SMALL
GASTEIGER

@<TRIPOS>ATOM
      1 C          64.2005   90.6980   14.4170 C.3     1  UNL1        0.1730
      2 C          65.1401   91.2157   15.4653 C.3     1  UNL1        0.0483
      3 C          66.1543   92.2630   15.1122 C.3     1  UNL1        0.0253
      4 C          67.0940   92.7807   16.1605 C.3     1  UNL1        0.0048
      5 C          66.2289   92.7924   13.7107 C.2     1  UNL1       -0.0305
      6 C          65.2892   92.2746   12.6624 C.2     1  UNL1       -0.0236
      7 C          65.3638   92.8041   11.2609 C.2     1  UNL1       -0.0091
      8 C          64.4241   92.2863   10.2126 C.2     1  UNL1       -0.0268
      9 C          63.4099   91.2391   10.5658 C.3     1  UNL1        0.0224
     10 C          62.4702   90.7213    9.5174 C.3     1  UNL1        0.0047
     11 C          63.3354   90.7096   11.9672 C.3     1  UNL1        0.0117
     12 C          64.2750   91.2274   13.0156 C.3     1  UNL1        0.0624
     13 O          63.1863   89.6507   14.7702 O.3     1  UNL1       -0.4519
     14 C          63.3617   88.8246   16.0098 C.2     1  UNL1        0.3158
     15 O          63.2467   89.4659   17.3610 O.2     1  UNL1       -0.2501
     16 C          63.6521   87.3572   15.8984 C.3     1  UNL1        0.0896
     17 C          62.9314   87.1164   17.1916 C.3     1  UNL1        0.0111
     18 C          64.3728   87.5981   14.6051 C.3     1  UNL1        0.0111
     19 C          65.0582   85.4109   14.9059 C.3     1  UNL1        0.0006
     20 C          63.9425   85.8898   15.7869 C.3     1  UNL1        0.0106
     21 C          62.3212   89.6624   12.3204 C.3     1  UNL1        0.0045
     22 C          61.6285   88.8929   11.2349 C.3     1  UNL1        0.0437
     23 C          62.0037   87.4647   10.9716 C.3     1  UNL1        0.1713
     24 C          62.2712   87.0059    9.5688 C.3     1  UNL1        0.0734
     25 C          62.6464   85.5777    9.3054 C.3     1  UNL1        0.1252
     26 O          62.9139   85.1189    7.9026 O.3     1  UNL1       -0.3838
     27 C          62.7542   84.6082   10.4449 C.3     1  UNL1        0.1388
     28 C          62.4867   85.0669   11.8478 C.2     1  UNL1        0.3194
     29 O          62.5945   84.0975   12.9873 O.2     1  UNL1       -0.2500
     30 O          62.1115   86.4952   12.1112 O.3     1  UNL1       -0.4521
     31 H          63.1415   84.1760    7.9087 H       1  UNL1        0.2104
@<TRIPOS>BOND
     1    19    20    1
     2    20    16    1
     3    16    17    1
     4    16    18    1
     5    16    14    1
     6    14    15    2
     7    14    13    1
     8     1    13    1
     9     1     2    1
    10     2     3    1
    11     3     4    1
    12     3     5    1
    13     5     6    2
    14     6     7    1
    15     7     8    2
    16     8     9    1
    17     9    10    1
    18     9    11    1
    19    11    21    1
    20    21    22    1
    21    23    22    1
    22    23    24    1
    23    24    25    1
    24    25    26    1
    25    25    27    1
    26    27    28    1
    27    28    29    2
    28    28    30    1
    29    11    12    1
    30    12     1    1
    31    12     6    1
    32    30    23    1
    33    26    31    1
@<TRIPOS>MOLECULE
*****
 31 33 0 0 0
SMALL
GASTEIGER

@<TRIPOS>ATOM
      1 C          62.4956   85.8224   10.5047 C.3     1  UNL1        0.1730
      2 C          62.2063   86.0092    9.0448 C.3     1  UNL1        0.0483
      3 C          62.5747   84.9360    8.0638 C.3     1  UNL1        0.0253
      4 C          62.2853   85.1229    6.6038 C.3     1  UNL1        0.0048
      5 C          63.2323   83.6758    8.5427 C.2     1  UNL1       -0.0305
      6 C          63.5216   83.4889   10.0026 C.2     1  UNL1       -0.0236
      7 C          64.1794   82.2287   10.4815 C.2     1  UNL1       -0.0091
      8 C          64.4687   82.0418   11.9414 C.2     1  UNL1       -0.0268
      9 C          64.1003   83.1151   12.9224 C.3     1  UNL1        0.0224
     10 C          64.3896   82.9281   14.3824 C.3     1  UNL1        0.0047
     11 C          63.4426   84.3752   12.4435 C.3     1  UNL1        0.0117
     12 C          63.1533   84.5622   10.9836 C.3     1  UNL1        0.0624
     13 O          62.1273   86.8957   11.4857 O.3     1  UNL1       -0.4519
     14 C          61.3072   88.0698   11.0399 C.2     1  UNL1        0.3158
     15 O          59.8096   87.9833   11.0432 O.2     1  UNL1       -0.2501
     16 C          61.9846   89.3306   10.5908 C.3     1  UNL1        0.0896
     17 C          61.0446   89.4204    9.4253 C.3     1  UNL1        0.0111
     18 C          62.9246   89.2407   11.7563 C.3     1  UNL1        0.0111
     19 C          63.6790   91.2517   11.0248 C.3     1  UNL1        0.0006
     20 C          62.6620   90.5913   10.1417 C.3     1  UNL1        0.0106
     21 C          63.0743   85.4485   13.4245 C.3     1  UNL1        0.0045
     22 C          64.1447   86.2955   14.0466 C.3     1  UNL1        0.0437
     23 C          63.7894   87.2915   15.1105 C.3     1  UNL1        0.1713
     24 C          63.3818   86.8187   16.4744 C.3     1  UNL1        0.0734
     25 C          63.0265   87.8147   17.5383 C.3     1  UNL1        0.1252
     26 O          62.6190   87.3419   18.9022 O.3     1  UNL1       -0.3838
     27 C          63.0787   89.2834   17.2382 C.3     1  UNL1        0.1388
     28 C          63.4863   89.7562   15.8742 C.2     1  UNL1        0.3194
     29 O          63.5385   91.2250   15.5741 O.2     1  UNL1       -0.2500
     30 O          63.8416   88.7603   14.8103 O.3     1  UNL1       -0.4521
     31 H          62.4244   88.1076   19.4650 H       1  UNL1        0.2104
@<TRIPOS>BOND
     1    19    20    1
     2    20    16    1
     3    16    17    1
     4    16    18    1
     5    16    14    1
     6    14    15    2
     7    14    13    1
     8     1    13    1
     9     1     2    1
    10     2     3    1
    11     3     4    1
    12     3     5    1
    13     5     6    2
    14     6     7    1
    15     7     8    2
    16     8     9    1
    17     9    10    1
    18     9    11    1
    19    11    21    1
    20    21    22    1
    21    23    22    1
    22    23    24    1
    23    24    25    1
    24    25    26    1
    25    25    27    1
    26    27    28    1
    27    28    29    2
    28    28    30    1
    29    11    12    1
    30    12     1    1
    31    12     6    1
    32    30    23    1
    33    26    31    1
@<TRIPOS>MOLECULE
*****
 31 33 0 0 0
SMALL
GASTEIGER

@<TRIPOS>ATOM
      1 C          62.7143   85.8241   11.5365 C.3     1  UNL1        0.1730
      2 C          62.4305   84.4071   11.1347 C.3     1  UNL1        0.0483
      3 C          62.7637   83.2816   12.0687 C.3     1  UNL1        0.0253
      4 C          62.4798   81.8645   11.6668 C.3     1  UNL1        0.0048
      5 C          63.3808   83.5731   13.4044 C.2     1  UNL1       -0.0305
      6 C          63.6646   84.9901   13.8061 C.2     1  UNL1       -0.0236
      7 C          64.2817   85.2817   15.1419 C.2     1  UNL1       -0.0091
      8 C          64.5655   86.6988   15.5437 C.2     1  UNL1       -0.0268
      9 C          64.2323   87.8242   14.6097 C.3     1  UNL1        0.0224
     10 C          64.5162   89.2413   15.0116 C.3     1  UNL1        0.0047
     11 C          63.6152   87.5327   13.2740 C.3     1  UNL1        0.0117
     12 C          63.3314   86.1156   12.8722 C.3     1  UNL1        0.0624
     13 O          62.3811   86.9496   10.6025 O.3     1  UNL1       -0.4519
     14 C          61.9954   86.6569    9.1829 C.2     1  UNL1        0.3158
     15 O          62.9081   85.8483    8.3091 O.2     1  UNL1       -0.2501
     16 C          60.6970   87.1726    8.6368 C.3     1  UNL1        0.0896
     17 C          60.5495   85.9284    7.8122 C.3     1  UNL1        0.0111
     18 C          60.8445   88.4169    9.4615 C.3     1  UNL1        0.0111
     19 C          59.3885   88.8810    7.1810 C.3     1  UNL1        0.0006
     20 C          59.3986   87.6884    8.0908 C.3     1  UNL1        0.0106
     21 C          63.2820   88.6582   12.3401 C.3     1  UNL1        0.0045
     22 C          63.0110   90.0294   12.8846 C.3     1  UNL1        0.0437
     23 C          64.0124   91.1278   12.6829 C.3     1  UNL1        0.1713
     24 C          64.2601   91.6738   11.3080 C.3     1  UNL1        0.0734
     25 C          65.2615   92.7722   11.1063 C.3     1  UNL1        0.1252
     26 O          65.5091   93.3182    9.7314 O.3     1  UNL1       -0.3838
     27 C          66.0153   93.3246   12.2796 C.3     1  UNL1        0.1388
     28 C          65.7677   92.7786   13.6546 C.2     1  UNL1        0.3194
     29 O          66.5215   93.3310   14.8279 O.2     1  UNL1       -0.2500
     30 O          64.7663   91.6802   13.8563 O.3     1  UNL1       -0.4521
     31 H          66.1803   94.0170    9.7770 H       1  UNL1        0.2104
@<TRIPOS>BOND
     1    19    20    1
     2    20    16    1
     3    16    17    1
     4    16    18    1
     5    16    14    1
     6    14    15    2
     7    14    13    1
     8     1    13    1
     9     1     2    1
    10     2     3    1
    11     3     4    1
    12     3     5    1
    13     5     6    2
    14     6     7    1
    15     7     8    2
    16     8     9    1
    17     9    10    1
    18     9    11    1
    19    11    21    1
    20    21    22    1
    21    23    22    1
    22    23    24    1
    23    24    25    1
    24    25    26    1
    25    25    27    1
    26    27    28    1
    27    28    29    2
    28    28    30    1
    29    11    12    1
    30    12     1    1
    31    12     6    1
    32    30    23    1
    33    26    31    1
@<TRIPOS>MOLECULE
*****
 31 33 0 0 0
SMALL
GASTEIGER

@<TRIPOS>ATOM
      1 C          62.5388   86.1035   10.5160 C.3     1  UNL1        0.1730
      2 C          62.3006   86.1053    9.0350 C.3     1  UNL1        0.0483
      3 C          62.6951   84.9160    8.2105 C.3     1  UNL1        0.0253
      4 C          62.4568   84.9178    6.7295 C.3     1  UNL1        0.0048
      5 C          63.3278   83.7249    8.8669 C.2     1  UNL1       -0.0305
      6 C          63.5660   83.7231   10.3478 C.2     1  UNL1       -0.0236
      7 C          64.1987   82.5320   11.0043 C.2     1  UNL1       -0.0091
      8 C          64.4369   82.5302   12.4852 C.2     1  UNL1       -0.0268
      9 C          64.0424   83.7195   13.3098 C.3     1  UNL1        0.0224
     10 C          64.2807   83.7177   14.7908 C.3     1  UNL1        0.0047
     11 C          63.4097   84.9106   12.6534 C.3     1  UNL1        0.0117
     12 C          63.1715   84.9124   11.1724 C.3     1  UNL1        0.0624
     13 O          62.1443   87.2929   11.3405 O.3     1  UNL1       -0.4519
     14 C          60.8412   87.9881   11.0787 C.2     1  UNL1        0.3158
     15 O          59.8058   88.0731   12.1608 O.2     1  UNL1       -0.2501
     16 C          60.5734   88.5982    9.7348 C.3     1  UNL1        0.0896
     17 C          59.4710   87.6074    9.5046 C.3     1  UNL1        0.0111
     18 C          61.6758   89.5890    9.9650 C.3     1  UNL1        0.0111
     19 C          59.3800   88.5253    7.4281 C.3     1  UNL1        0.0006
     20 C          60.3056   89.2084    8.3909 C.3     1  UNL1        0.0106
     21 C          63.0152   86.1000   13.4779 C.3     1  UNL1        0.0045
     22 C          64.0631   86.8889   14.2057 C.3     1  UNL1        0.0437
     23 C          63.9936   88.3871   14.2275 C.3     1  UNL1        0.1713
     24 C          63.8322   89.1115   15.5310 C.3     1  UNL1        0.0734
     25 C          63.7627   90.6098   15.5528 C.3     1  UNL1        0.1252
     26 O          63.6012   91.3342   16.8563 O.3     1  UNL1       -0.3838
     27 C          63.8546   91.3836   14.2711 C.3     1  UNL1        0.1388
     28 C          64.0160   90.6591   12.9675 C.2     1  UNL1        0.3194
     29 O          64.1079   91.4329   11.6859 O.2     1  UNL1       -0.2500
     30 O          64.0855   89.1609   12.9457 O.3     1  UNL1       -0.4521
     31 H          63.5743   92.2901   16.6937 H       1  UNL1        0.2104
@<TRIPOS>BOND
     1    19    20    1
     2    20    16    1
     3    16    17    1
     4    16    18    1
     5    16    14    1
     6    14    15    2
     7    14    13    1
     8     1    13    1
     9     1     2    1
    10     2     3    1
    11     3     4    1
    12     3     5    1
    13     5     6    2
    14     6     7    1
    15     7     8    2
    16     8     9    1
    17     9    10    1
    18     9    11    1
    19    11    21    1
    20    21    22    1
    21    23    22    1
    22    23    24    1
    23    24    25    1
    24    25    26    1
    25    25    27    1
    26    27    28    1
    27    28    29    2
    28    28    30    1
    29    11    12    1
    30    12     1    1
    31    12     6    1
    32    30    23    1
    33    26    31    1
@<TRIPOS>MOLECULE
*****
 31 33 0 0 0
SMALL
GASTEIGER

@<TRIPOS>ATOM
      1 C          64.1569   89.4199   13.7121 C.3     1  UNL1        0.1730
      2 C          65.1502   90.0987   14.6080 C.3     1  UNL1        0.0483
      3 C          65.7311   91.4246   14.2152 C.3     1  UNL1        0.0253
      4 C          66.7244   92.1033   15.1112 C.3     1  UNL1        0.0048
      5 C          65.3189   92.0718   12.9264 C.2     1  UNL1       -0.0305
      6 C          64.3256   91.3931   12.0304 C.2     1  UNL1       -0.0236
      7 C          63.9133   92.0403   10.7415 C.2     1  UNL1       -0.0091
      8 C          62.9201   91.3616    9.8456 C.2     1  UNL1       -0.0268
      9 C          62.3391   90.0357   10.2385 C.3     1  UNL1        0.0224
     10 C          61.3458   89.3570    9.3424 C.3     1  UNL1        0.0047
     11 C          62.7514   89.3885   11.5273 C.3     1  UNL1        0.0117
     12 C          63.7447   90.0672   12.4233 C.3     1  UNL1        0.0624
     13 O          63.5759   88.0940   14.1050 O.3     1  UNL1       -0.4519
     14 C          63.5414   87.6885   15.5487 C.2     1  UNL1        0.3158
     15 O          63.1773   88.6931   16.6014 O.2     1  UNL1       -0.2501
     16 C          63.8708   86.2783   15.9397 C.3     1  UNL1        0.0896
     17 C          62.9989   86.4110   17.1530 C.3     1  UNL1        0.0111
     18 C          64.7427   86.1455   14.7264 C.3     1  UNL1        0.0111
     19 C          64.9518   83.9827   15.3814 C.3     1  UNL1        0.0006
     20 C          64.2002   84.8681   16.3307 C.3     1  UNL1        0.0106
     21 C          62.1704   88.0625   11.9201 C.3     1  UNL1        0.0045
     22 C          62.1767   86.9224   10.9453 C.3     1  UNL1        0.0437
     23 C          62.5252   85.5397   11.4106 C.3     1  UNL1        0.1713
     24 C          63.3599   84.6447   10.5434 C.3     1  UNL1        0.0734
     25 C          63.7084   83.2619   11.0087 C.3     1  UNL1        0.1252
     26 O          64.5431   82.3669   10.1415 O.3     1  UNL1       -0.3838
     27 C          63.2223   82.7742   12.3413 C.3     1  UNL1        0.1388
     28 C          62.3875   83.6693   13.2086 C.2     1  UNL1        0.3194
     29 O          61.9013   83.1816   14.5411 O.2     1  UNL1       -0.2500
     30 O          62.0390   85.0520   12.7432 O.3     1  UNL1       -0.4521
     31 H          64.6746   81.5155   10.5874 H       1  UNL1        0.2104
@<TRIPOS>BOND
     1    19    20    1
     2    20    16    1
     3    16    17    1
     4    16    18    1
     5    16    14    1
     6    14    15    2
     7    14    13    1
     8     1    13    1
     9     1     2    1
    10     2     3    1
    11     3     4    1
    12     3     5    1
    13     5     6    2
    14     6     7    1
    15     7     8    2
    16     8     9    1
    17     9    10    1
    18     9    11    1
    19    11    21    1
    20    21    22    1
    21    23    22    1
    22    23    24    1
    23    24    25    1
    24    25    26    1
    25    25    27    1
    26    27    28    1
    27    28    29    2
    28    28    30    1
    29    11    12    1
    30    12     1    1
    31    12     6    1
    32    30    23    1
    33    26    31    1
