@<TRIPOS>MOLECULE
*****
 17 18 0 0 0
SMALL
GASTEIGER

@<TRIPOS>ATOM
      1 C          63.6818   83.7364   10.7556 C.ar    1  UNL1        0.1386
      2 C          62.6974   84.4430   11.6396 C.ar    1  UNL1        0.0370
      3 C          61.8168   85.5170   11.0731 C.ar    1  UNL1        0.0062
      4 C          61.9205   85.8844    9.6225 C.ar    1  UNL1        0.0371
      5 C          62.9049   85.1778    8.7385 C.ar    1  UNL1        0.0062
      6 C          63.7856   84.1038    9.3050 C.ar    1  UNL1        0.0370
      7 C          61.0399   86.9584    9.0560 C.ar    1  UNL1        0.1728
      8 O          59.8977   86.7521    8.1058 O.2     1  UNL1       -0.3537
      9 N          59.2987   88.0935    7.8028 N.ar    1  UNL1       -0.0757
     10 C          60.0707   89.1289    8.5656 C.ar    1  UNL1        0.1394
     11 C          61.1468   88.4273    9.3401 C.ar    1  UNL1        0.0377
     12 C          62.1531   89.0802   10.2407 C.3     1  UNL1        0.0361
     13 O          64.5625   82.6624   11.3221 O.3     1  UNL1       -0.4755
     14 C          64.0834   81.8297   12.4740 C.3     1  UNL1        0.2054
     15 C          62.9715   80.8427   12.2748 C.3     1  UNL1        0.0473
     16 C          61.1727   81.0953   14.1324 C.3     1  UNL1        0.0001
     17 C          62.2419   80.2853   13.4610 C.3     1  UNL1        0.0038
@<TRIPOS>BOND
     1    16    17    1
     2    17    15    1
     3    15    14    1
     4    14    13    1
     5    13     1    1
     6     1     2   ar
     7     2     3   ar
     8     3     4   ar
     9     4     7    1
    10     7     8   ar
    11     8     9   ar
    12     9    10   ar
    13    10    11   ar
    14    11    12    1
    15     4     5   ar
    16     5     6   ar
    17     6     1   ar
    18    11     7   ar
@<TRIPOS>MOLECULE
*****
 17 18 0 0 0
SMALL
GASTEIGER

@<TRIPOS>ATOM
      1 C          63.5598   83.6229   10.7603 C.ar    1  UNL1        0.1386
      2 C          62.7198   84.3975   11.7320 C.ar    1  UNL1        0.0370
      3 C          61.9948   85.6304   11.2802 C.ar    1  UNL1        0.0062
      4 C          62.1098   86.0888    9.8567 C.ar    1  UNL1        0.0371
      5 C          62.9498   85.3143    8.8849 C.ar    1  UNL1        0.0062
      6 C          63.6748   84.0813    9.3367 C.ar    1  UNL1        0.0370
      7 C          61.3847   87.3218    9.4049 C.ar    1  UNL1        0.1728
      8 O          61.6531   88.7225    9.8695 O.2     1  UNL1       -0.3537
      9 N          60.6983   89.6370    9.1609 N.ar    1  UNL1       -0.0757
     10 C          59.8398   88.8014    8.2583 C.ar    1  UNL1        0.1394
     11 C          60.2640   87.3706    8.4091 C.ar    1  UNL1        0.0377
     12 C          59.6715   86.1949    7.6903 C.3     1  UNL1        0.0361
     13 O          64.2848   82.3899   11.2121 O.3     1  UNL1       -0.4755
     14 C          64.1101   81.8888   12.6150 C.3     1  UNL1        0.2054
     15 C          62.9454   81.0077   12.9571 C.3     1  UNL1        0.0473
     16 C          60.6493   80.6757   14.1268 C.3     1  UNL1        0.0001
     17 C          61.8754   81.5049   13.8834 C.3     1  UNL1        0.0038
@<TRIPOS>BOND
     1    16    17    1
     2    17    15    1
     3    15    14    1
     4    14    13    1
     5    13     1    1
     6     1     2   ar
     7     2     3   ar
     8     3     4   ar
     9     4     7    1
    10     7     8   ar
    11     8     9   ar
    12     9    10   ar
    13    10    11   ar
    14    11    12    1
    15     4     5   ar
    16     5     6   ar
    17     6     1   ar
    18    11     7   ar
@<TRIPOS>MOLECULE
*****
 17 18 0 0 0
SMALL
GASTEIGER

@<TRIPOS>ATOM
      1 C          63.9406   90.5757   13.1101 C.ar    1  UNL1        0.1386
      2 C          65.0996   91.3359   13.6835 C.ar    1  UNL1        0.0370
      3 C          65.8292   92.3394   12.8405 C.ar    1  UNL1        0.0062
      4 C          65.3998   92.5827   11.4240 C.ar    1  UNL1        0.0371
      5 C          64.2409   91.8224   10.8506 C.ar    1  UNL1        0.0062
      6 C          63.5113   90.8189   11.6936 C.ar    1  UNL1        0.0370
      7 C          66.1294   93.5861   10.5810 C.ar    1  UNL1        0.1728
      8 O          65.7225   95.0125   10.3578 O.2     1  UNL1       -0.3537
      9 N          66.7356   95.6474    9.4520 N.ar    1  UNL1       -0.0757
     10 C          67.7688   94.6134    9.1153 C.ar    1  UNL1        0.1394
     11 C          67.3941   93.3395    9.8130 C.ar    1  UNL1        0.0377
     12 C          68.1513   92.0459    9.7533 C.3     1  UNL1        0.0361
     13 O          63.2110   89.5722   13.9531 O.3     1  UNL1       -0.4755
     14 C          63.8645   89.0056   15.1786 C.3     1  UNL1        0.2054
     15 C          63.1747   89.0986   16.5074 C.3     1  UNL1        0.0473
     16 C          63.2416   86.5117   16.7389 C.3     1  UNL1        0.0001
     17 C          62.9571   87.8617   17.3276 C.3     1  UNL1        0.0038
@<TRIPOS>BOND
     1    16    17    1
     2    17    15    1
     3    15    14    1
     4    14    13    1
     5    13     1    1
     6     1     2   ar
     7     2     3   ar
     8     3     4   ar
     9     4     7    1
    10     7     8   ar
    11     8     9   ar
    12     9    10   ar
    13    10    11   ar
    14    11    12    1
    15     4     5   ar
    16     5     6   ar
    17     6     1   ar
    18    11     7   ar
@<TRIPOS>MOLECULE
*****
 17 18 0 0 0
SMALL
GASTEIGER

@<TRIPOS>ATOM
      1 C          64.1587   91.0997   13.8188 C.ar    1  UNL1        0.1386
      2 C          63.7663   91.2235   12.3763 C.ar    1  UNL1        0.0370
      3 C          64.6865   91.9003   11.4041 C.ar    1  UNL1        0.0062
      4 C          65.9991   92.4533   11.8744 C.ar    1  UNL1        0.0371
      5 C          66.3915   92.3295   13.3168 C.ar    1  UNL1        0.0062
      6 C          65.4714   91.6527   14.2890 C.ar    1  UNL1        0.0370
      7 C          66.9193   93.1301   10.9022 C.ar    1  UNL1        0.1728
      8 O          68.2277   92.5910   10.4048 O.2     1  UNL1       -0.3537
      9 N          68.8097   93.5926    9.4519 N.ar    1  UNL1       -0.0757
     10 C          67.8610   94.7508    9.3603 C.ar    1  UNL1        0.1394
     11 C          66.6927   94.4650   10.2566 C.ar    1  UNL1        0.0377
     12 C          65.5060   95.3574   10.4699 C.3     1  UNL1        0.0361
     13 O          63.2386   90.4228   14.7910 O.3     1  UNL1       -0.4755
     14 C          63.6037   89.0849   15.3623 C.3     1  UNL1        0.2054
     15 C          64.3567   88.0927   14.5265 C.3     1  UNL1        0.0473
     16 C          63.9865   85.5543   14.1143 C.3     1  UNL1        0.0001
     17 C          64.4844   86.6700   14.9845 C.3     1  UNL1        0.0038
@<TRIPOS>BOND
     1    16    17    1
     2    17    15    1
     3    15    14    1
     4    14    13    1
     5    13     1    1
     6     1     2   ar
     7     2     3   ar
     8     3     4   ar
     9     4     7    1
    10     7     8   ar
    11     8     9   ar
    12     9    10   ar
    13    10    11   ar
    14    11    12    1
    15     4     5   ar
    16     5     6   ar
    17     6     1   ar
    18    11     7   ar
@<TRIPOS>MOLECULE
*****
 17 18 0 0 0
SMALL
GASTEIGER

@<TRIPOS>ATOM
      1 C          65.1353   92.4449   11.9046 C.ar    1  UNL1        0.1386
      2 C          64.8084   91.5811   13.0866 C.ar    1  UNL1        0.0370
      3 C          63.8028   90.4762   12.9528 C.ar    1  UNL1        0.0062
      4 C          63.1241   90.2350   11.6371 C.ar    1  UNL1        0.0371
      5 C          63.4510   91.0987   10.4552 C.ar    1  UNL1        0.0062
      6 C          64.4566   92.2037   10.5889 C.ar    1  UNL1        0.0370
      7 C          62.1185   89.1300   11.5034 C.ar    1  UNL1        0.1728
      8 O          62.3987   87.6623   11.6342 O.2     1  UNL1       -0.3537
      9 N          61.1095   86.9239   11.4270 N.ar    1  UNL1       -0.0757
     10 C          60.0326   87.9354   11.1681 C.ar    1  UNL1        0.1394
     11 C          60.6561   89.2988   11.2154 C.ar    1  UNL1        0.0377
     12 C          59.9426   90.6022   11.0105 C.3     1  UNL1        0.0361
     13 O          66.1409   93.5498   12.0384 O.3     1  UNL1       -0.4755
     14 C          66.1292   94.6957   11.0706 C.3     1  UNL1        0.2054
     15 C          67.2582   94.8675   10.0980 C.3     1  UNL1        0.0473
     16 C          68.5185   92.7419    9.2959 C.3     1  UNL1        0.0001
     17 C          67.5102   93.8248    9.0495 C.3     1  UNL1        0.0038
@<TRIPOS>BOND
     1    16    17    1
     2    17    15    1
     3    15    14    1
     4    14    13    1
     5    13     1    1
     6     1     2   ar
     7     2     3   ar
     8     3     4   ar
     9     4     7    1
    10     7     8   ar
    11     8     9   ar
    12     9    10   ar
    13    10    11   ar
    14    11    12    1
    15     4     5   ar
    16     5     6   ar
    17     6     1   ar
    18    11     7   ar
@<TRIPOS>MOLECULE
*****
 17 18 0 0 0
SMALL
GASTEIGER

@<TRIPOS>ATOM
      1 C          62.1962   89.2433   10.4076 C.ar    1  UNL1        0.1386
      2 C          62.6197   90.6236   10.0010 C.ar    1  UNL1        0.0370
      3 C          63.4881   91.4404   10.9114 C.ar    1  UNL1        0.0062
      4 C          63.9329   90.8769   12.2284 C.ar    1  UNL1        0.0371
      5 C          63.5093   89.4966   12.6350 C.ar    1  UNL1        0.0062
      6 C          62.6410   88.6798   11.7246 C.ar    1  UNL1        0.0370
      7 C          64.8012   91.6937   13.1388 C.ar    1  UNL1        0.1728
      8 O          64.6246   91.8495   14.6202 O.2     1  UNL1       -0.3537
      9 N          65.7129   92.7501   15.1246 N.ar    1  UNL1       -0.0757
     10 C          66.5621   93.1510   13.9549 C.ar    1  UNL1        0.1394
     11 C          65.9987   92.4981   12.7277 C.ar    1  UNL1        0.0377
     12 C          66.5380   92.6269   11.3339 C.3     1  UNL1        0.0361
     13 O          61.3278   88.4265    9.4972 O.3     1  UNL1       -0.4755
     14 C          60.2550   89.0923    8.6874 C.3     1  UNL1        0.2054
     15 C          59.4160   88.2825    7.7438 C.3     1  UNL1        0.0473
     16 C          60.2467   85.8295    7.5363 C.3     1  UNL1        0.0001
     17 C          59.2127   86.8169    7.9901 C.3     1  UNL1        0.0038
@<TRIPOS>BOND
     1    16    17    1
     2    17    15    1
     3    15    14    1
     4    14    13    1
     5    13     1    1
     6     1     2   ar
     7     2     3   ar
     8     3     4   ar
     9     4     7    1
    10     7     8   ar
    11     8     9   ar
    12     9    10   ar
    13    10    11   ar
    14    11    12    1
    15     4     5   ar
    16     5     6   ar
    17     6     1   ar
    18    11     7   ar
@<TRIPOS>MOLECULE
*****
 17 18 0 0 0
SMALL
GASTEIGER

@<TRIPOS>ATOM
      1 C          63.0585   89.6402   12.4929 C.ar    1  UNL1        0.1386
      2 C          63.7571   89.1102   13.7099 C.ar    1  UNL1        0.0370
      3 C          64.8966   89.8762   14.3138 C.ar    1  UNL1        0.0062
      4 C          65.3376   91.1721   13.7007 C.ar    1  UNL1        0.0371
      5 C          64.6390   91.7021   12.4837 C.ar    1  UNL1        0.0062
      6 C          63.4995   90.9361   11.8798 C.ar    1  UNL1        0.0370
      7 C          66.4772   91.9381   14.3045 C.ar    1  UNL1        0.1728
      8 O          67.7981   92.2155   13.6501 O.2     1  UNL1       -0.3537
      9 N          68.6332   93.0101   14.6100 N.ar    1  UNL1       -0.0757
     10 C          67.8284   93.2238   15.8576 C.ar    1  UNL1        0.1394
     11 C          66.4959   92.5613   15.6688 C.ar    1  UNL1        0.0377
     12 C          65.3784   92.5278   16.6689 C.3     1  UNL1        0.0361
     13 O          61.9189   88.8742   11.8891 O.3     1  UNL1       -0.4755
     14 C          62.1150   88.1279   10.6028 C.3     1  UNL1        0.2054
     15 C          61.2950   86.9060   10.3121 C.3     1  UNL1        0.0473
     16 C          62.8130   85.6469    8.6207 C.3     1  UNL1        0.0001
     17 C          61.4662   86.1800    9.0107 C.3     1  UNL1        0.0038
@<TRIPOS>BOND
     1    16    17    1
     2    17    15    1
     3    15    14    1
     4    14    13    1
     5    13     1    1
     6     1     2   ar
     7     2     3   ar
     8     3     4   ar
     9     4     7    1
    10     7     8   ar
    11     8     9   ar
    12     9    10   ar
    13    10    11   ar
    14    11    12    1
    15     4     5   ar
    16     5     6   ar
    17     6     1   ar
    18    11     7   ar
@<TRIPOS>MOLECULE
*****
 17 18 0 0 0
SMALL
GASTEIGER

@<TRIPOS>ATOM
      1 C          62.2523   89.2835   10.3583 C.ar    1  UNL1        0.1386
      2 C          62.7072   90.6749   10.0312 C.ar    1  UNL1        0.0370
      3 C          63.5343   91.4449   11.0175 C.ar    1  UNL1        0.0062
      4 C          63.9066   90.8236   12.3310 C.ar    1  UNL1        0.0371
      5 C          63.4516   89.4323   12.6582 C.ar    1  UNL1        0.0062
      6 C          62.6245   88.6622   11.6719 C.ar    1  UNL1        0.0370
      7 C          64.7337   91.5937   13.3173 C.ar    1  UNL1        0.1728
      8 O          64.4815   91.6924   14.7927 O.2     1  UNL1       -0.3537
      9 N          65.5502   92.5600   15.3887 N.ar    1  UNL1       -0.0757
     10 C          66.4629   92.9975   14.2817 C.ar    1  UNL1        0.1394
     11 C          65.9583   92.4003   13.0015 C.ar    1  UNL1        0.0377
     12 C          66.5708   92.5785   11.6439 C.3     1  UNL1        0.0361
     13 O          61.4252   88.5134    9.3720 O.3     1  UNL1       -0.4755
     14 C          61.1118   87.0681    9.6226 C.3     1  UNL1        0.2054
     15 C          61.5016   86.0301    8.6123 C.3     1  UNL1        0.0473
     16 C          63.3856   84.3780    9.2990 C.3     1  UNL1        0.0001
     17 C          62.9275   85.5737    8.5178 C.3     1  UNL1        0.0038
@<TRIPOS>BOND
     1    16    17    1
     2    17    15    1
     3    15    14    1
     4    14    13    1
     5    13     1    1
     6     1     2   ar
     7     2     3   ar
     8     3     4   ar
     9     4     7    1
    10     7     8   ar
    11     8     9   ar
    12     9    10   ar
    13    10    11   ar
    14    11    12    1
    15     4     5   ar
    16     5     6   ar
    17     6     1   ar
    18    11     7   ar
@<TRIPOS>MOLECULE
*****
 17 18 0 0 0
SMALL
GASTEIGER

@<TRIPOS>ATOM
      1 C          64.7184   91.7706   12.5931 C.ar    1  UNL1        0.1386
      2 C          64.1297   90.6029   13.3278 C.ar    1  UNL1        0.0370
      3 C          63.1915   89.6688   12.6227 C.ar    1  UNL1        0.0062
      4 C          62.8420   89.9024   11.1828 C.ar    1  UNL1        0.0371
      5 C          63.4308   91.0701   10.4481 C.ar    1  UNL1        0.0062
      6 C          64.3689   92.0042   11.1533 C.ar    1  UNL1        0.0370
      7 C          61.9039   88.9683   10.4776 C.ar    1  UNL1        0.1728
      8 O          62.2988   87.8374    9.5747 O.2     1  UNL1       -0.3537
      9 N          61.0450   87.1712    9.0906 N.ar    1  UNL1       -0.0757
     10 C          59.8753   87.8903    9.6943 C.ar    1  UNL1        0.1394
     11 C          60.4061   89.0009   10.5516 C.ar    1  UNL1        0.0377
     12 C          59.5834   89.9735   11.3437 C.3     1  UNL1        0.0361
     13 O          65.6566   92.7047   13.2983 O.3     1  UNL1       -0.4755
     14 C          67.0634   92.2749   13.5914 C.3     1  UNL1        0.2054
     15 C          67.4011   91.6699   14.9218 C.3     1  UNL1        0.0473
     16 C          68.8188   93.5982   15.9327 C.3     1  UNL1        0.0001
     17 C          67.7510   92.5552   16.0811 C.3     1  UNL1        0.0038
@<TRIPOS>BOND
     1    16    17    1
     2    17    15    1
     3    15    14    1
     4    14    13    1
     5    13     1    1
     6     1     2   ar
     7     2     3   ar
     8     3     4   ar
     9     4     7    1
    10     7     8   ar
    11     8     9   ar
    12     9    10   ar
    13    10    11   ar
    14    11    12    1
    15     4     5   ar
    16     5     6   ar
    17     6     1   ar
    18    11     7   ar
