@<TRIPOS>MOLECULE
*****
 45 50 0 0 0
SMALL
GASTEIGER

@<TRIPOS>ATOM
      1 C          59.7852   90.0986    6.3558 C.2     1  UNL1        0.0332
      2 C          58.3024   90.2800    6.2205 C.2     1  UNL1        0.0101
      3 C          57.7473   91.1094    5.1007 C.2     1  UNL1        0.0255
      4 C          56.2644   91.2908    4.9655 C.3     1  UNL1        0.0351
      5 C          58.6750   91.7575    4.1162 C.2     1  UNL1        0.2278
      6 N          58.4214   92.6248    2.9189 N.2     1  UNL1       -0.0345
      7 C          59.7475   92.9795    2.3143 C.2     1  UNL1        0.3649
      8 N          60.8207   92.3314    3.1378 N.2     1  UNL1       -0.0380
      9 C          60.1579   91.5761    4.2515 C.2     1  UNL1        0.2184
     10 C          60.7129   90.7467    5.3713 C.3     1  UNL1        0.1186
     11 C          59.9627   93.8325    1.0994 C.3     1  UNL1        0.2250
     12 C          59.4032   93.4058   -0.2253 C.2     1  UNL1        0.0436
     13 C          59.6184   94.2589   -1.4402 C.2     1  UNL1        0.0288
     14 C          60.3931   95.5387   -1.3305 C.2     1  UNL1        0.0896
     15 N          60.9526   95.9654   -0.0058 N.am    1  UNL1       -0.1770
     16 C          60.7374   95.1123    1.2091 C.2     1  UNL1        0.2627
     17 O          61.2969   95.5390    2.5338 O.2     1  UNL1       -0.2719
     18 N          58.6285   92.1261   -0.3352 N.pl3   1  UNL1       -0.3329
     19 H          59.0320   91.2792   -0.0367 H       1  UNL1        0.1466
     20 C          57.2389   92.1366   -0.8999 C.3     1  UNL1        0.1211
     21 C          57.0254   92.3951   -2.3620 C.3     1  UNL1        0.1522
     22 O          57.6943   91.5234   -3.3832 O.3     1  UNL1       -0.3783
     23 H          58.2242   90.8467   -2.9334 H       1  UNL1        0.2109
     24 C          56.1432   93.5252   -2.8029 C.ar    1  UNL1        0.0067
     25 C          56.1273   93.9468   -4.2423 C.ar    1  UNL1       -0.0018
     26 C          55.2450   95.0769   -4.6831 C.ar    1  UNL1        0.0006
     27 C          54.3785   95.7855   -3.6846 C.ar    1  UNL1        0.0114
     28 C          54.3944   95.3639   -2.2452 C.ar    1  UNL1        0.0574
     29 CL         53.5279   96.0725   -1.2466 Cl      1  UNL1       -0.0823
     30 C          55.2767   94.2338   -1.8043 C.ar    1  UNL1        0.0095
     31 C          61.4506   87.6102    9.7150 C.3     1  UNL1        0.0610
     32 C          61.6443   89.0976    9.7162 C.3     1  UNL1        0.0374
     33 C          61.0892   89.9271    8.5963 C.3     1  UNL1        0.0919
     34 N          60.3403   89.2692    7.4756 N.pl3   1  UNL1       -0.3103
     35 C          60.1466   87.7818    7.4744 C.3     1  UNL1        0.0919
     36 C          60.7017   86.9523    8.5942 C.3     1  UNL1        0.0374
     37 C          63.5201   82.8002   14.1682 C.3     1  UNL1        0.0948
     38 C          63.6711   84.2924   14.1940 C.2     1  UNL1        0.2262
     39 O          64.3772   84.9550   15.3395 O.2     1  UNL1       -0.2749
     40 N          63.1159   85.1218   13.0742 N.am    1  UNL1       -0.2767
     41 C          62.4099   84.4592   11.9287 C.3     1  UNL1        0.1107
     42 C          61.8547   85.2886   10.8089 C.3     1  UNL1        0.0939
     43 N          62.0057   86.7808   10.8348 N.3     1  UNL1       -0.2710
     44 C          62.7118   87.4434   11.9803 C.3     1  UNL1        0.0939
     45 C          63.2669   86.6140   13.1000 C.3     1  UNL1        0.1107
@<TRIPOS>BOND
     1    37    38    1
     2    38    39    2
     3    38    40   am
     4    40    41    1
     5    41    42    1
     6    42    43    1
     7    43    31    1
     8    31    32    1
     9    32    33    1
    10    33    34    1
    11    34     1    1
    12     1     2    2
    13     2     3    1
    14     3     4    1
    15     3     5    2
    16     5     6    1
    17     6     7    2
    18     7    11    1
    19    11    12    1
    20    12    18    1
    21    18    20    1
    22    20    21    1
    23    21    22    1
    24    21    24    1
    25    24    25   ar
    26    25    26   ar
    27    26    27   ar
    28    27    28   ar
    29    28    29    1
    30    28    30   ar
    31    12    13    2
    32    13    14    1
    33    14    15    2
    34    15    16    1
    35    16    17    2
    36     7     8    1
    37     8     9    2
    38     9    10    1
    39    34    35    1
    40    35    36    1
    41    43    44    1
    42    44    45    1
    43    45    40    1
    44    36    31    1
    45    10     1    1
    46     9     5    1
    47    16    11    1
    48    30    24   ar
    49    18    19    1
    50    22    23    1
@<TRIPOS>MOLECULE
*****
 45 50 0 0 0
SMALL
GASTEIGER

@<TRIPOS>ATOM
      1 C          60.2208   89.9454    6.8182 C.2     1  UNL1        0.0332
      2 C          59.3658   88.7434    7.0900 C.2     1  UNL1        0.0101
      3 C          59.5784   87.9384    8.3378 C.2     1  UNL1        0.0255
      4 C          58.7233   86.7363    8.6095 C.3     1  UNL1        0.0351
      5 C          60.6460   88.3355    9.3137 C.2     1  UNL1        0.2278
      6 N          61.0847   87.7401   10.6187 N.2     1  UNL1       -0.0345
      7 C          62.2109   88.5742   11.1534 C.2     1  UNL1        0.3649
      8 N          62.4682   89.6852   10.1789 N.2     1  UNL1       -0.0380
      9 C          61.5011   89.5376    9.0419 C.2     1  UNL1        0.2184
     10 C          61.2885   90.3426    7.7941 C.3     1  UNL1        0.1186
     11 C          62.9501   88.3388   12.4372 C.3     1  UNL1        0.2250
     12 C          63.4542   89.5034   13.2368 C.2     1  UNL1        0.0436
     13 C          64.1933   89.2679   14.5207 C.2     1  UNL1        0.0288
     14 C          64.4283   87.8678   15.0049 C.2     1  UNL1        0.0896
     15 N          63.9242   86.7031   14.2053 N.am    1  UNL1       -0.1770
     16 C          63.1851   86.9387   12.9214 C.2     1  UNL1        0.2627
     17 O          62.6809   85.7740   12.1218 O.2     1  UNL1       -0.2719
     18 N          63.2192   90.9035   12.7527 N.pl3   1  UNL1       -0.3329
     19 H          62.4438   91.4140   13.0804 H       1  UNL1        0.1466
     20 C          64.1657   91.5259   11.7694 C.3     1  UNL1        0.1211
     21 C          65.2417   92.4546   12.2488 C.3     1  UNL1        0.1522
     22 O          65.4471   92.6690   13.7191 O.3     1  UNL1       -0.3783
     23 H          64.8061   92.1370   14.2161 H       1  UNL1        0.2109
     24 C          66.1123   93.1687   11.2578 C.ar    1  UNL1        0.0067
     25 C          66.0238   94.6596   11.1192 C.ar    1  UNL1       -0.0018
     26 C          66.8944   95.3738   10.1282 C.ar    1  UNL1        0.0006
     27 C          67.8536   94.5970    9.2758 C.ar    1  UNL1        0.0114
     28 C          67.9421   93.1061    9.4144 C.ar    1  UNL1        0.0574
     29 CL         68.9012   92.3293    8.5620 Cl      1  UNL1       -0.0823
     30 C          67.0714   92.3919   10.4054 C.ar    1  UNL1        0.0095
     31 C          59.5833   92.3605    3.0750 C.3     1  UNL1        0.0610
     32 C          58.4185   92.0250    3.9585 C.3     1  UNL1        0.0374
     33 C          58.6311   91.2199    5.2063 C.3     1  UNL1        0.0919
     34 N          60.0083   90.7505    5.5705 N.pl3   1  UNL1       -0.3103
     35 C          61.1731   91.0860    4.6869 C.3     1  UNL1        0.0919
     36 C          60.9606   91.8910    3.4392 C.3     1  UNL1        0.0374
     37 C          59.4947   96.8560   -2.1243 C.3     1  UNL1        0.0948
     38 C          58.7334   95.5804   -1.9160 C.2     1  UNL1        0.2262
     39 O          57.7597   95.1099   -2.9553 O.2     1  UNL1       -0.2749
     40 N          58.9459   94.7755   -0.6681 N.am    1  UNL1       -0.2767
     41 C          59.9196   95.2460    0.3712 C.3     1  UNL1        0.1107
     42 C          60.1321   94.4410    1.6190 C.3     1  UNL1        0.0939
     43 N          59.3709   93.1655    1.8273 N.3     1  UNL1       -0.2710
     44 C          58.3971   92.6949    0.7879 C.3     1  UNL1        0.0939
     45 C          58.1846   93.4999   -0.4598 C.3     1  UNL1        0.1107
@<TRIPOS>BOND
     1    37    38    1
     2    38    39    2
     3    38    40   am
     4    40    41    1
     5    41    42    1
     6    42    43    1
     7    43    31    1
     8    31    32    1
     9    32    33    1
    10    33    34    1
    11    34     1    1
    12     1     2    2
    13     2     3    1
    14     3     4    1
    15     3     5    2
    16     5     6    1
    17     6     7    2
    18     7    11    1
    19    11    12    1
    20    12    18    1
    21    18    20    1
    22    20    21    1
    23    21    22    1
    24    21    24    1
    25    24    25   ar
    26    25    26   ar
    27    26    27   ar
    28    27    28   ar
    29    28    29    1
    30    28    30   ar
    31    12    13    2
    32    13    14    1
    33    14    15    2
    34    15    16    1
    35    16    17    2
    36     7     8    1
    37     8     9    2
    38     9    10    1
    39    34    35    1
    40    35    36    1
    41    43    44    1
    42    44    45    1
    43    45    40    1
    44    36    31    1
    45    10     1    1
    46     9     5    1
    47    16    11    1
    48    30    24   ar
    49    18    19    1
    50    22    23    1
@<TRIPOS>MOLECULE
*****
 45 50 0 0 0
SMALL
GASTEIGER

@<TRIPOS>ATOM
      1 C          59.7805   90.1314    6.3534 C.2     1  UNL1        0.0332
      2 C          58.2974   90.3089    6.2176 C.2     1  UNL1        0.0101
      3 C          57.7404   91.1357    5.0967 C.2     1  UNL1        0.0255
      4 C          56.2572   91.3132    4.9609 C.3     1  UNL1        0.0351
      5 C          58.6669   91.7848    4.1116 C.2     1  UNL1        0.2278
      6 N          58.4114   92.6500    2.9132 N.2     1  UNL1       -0.0345
      7 C          59.7368   93.0072    2.3085 C.2     1  UNL1        0.3649
      8 N          60.8114   92.3627    3.1330 N.2     1  UNL1       -0.0380
      9 C          60.1501   91.6072    4.2475 C.2     1  UNL1        0.2184
     10 C          60.7069   90.7805    5.3684 C.3     1  UNL1        0.1186
     11 C          59.9502   93.8593    1.0926 C.3     1  UNL1        0.2250
     12 C          61.1432   94.7649    1.0113 C.2     1  UNL1        0.0436
     13 C          61.3566   95.6169   -0.2047 C.2     1  UNL1        0.0288
     14 C          60.3770   95.5634   -1.3393 C.2     1  UNL1        0.0896
     15 N          59.1840   94.6578   -1.2581 N.am    1  UNL1       -0.1770
     16 C          58.9706   93.8058   -0.0421 C.2     1  UNL1        0.2627
     17 O          57.7776   92.9002    0.0391 O.2     1  UNL1       -0.2719
     18 N          62.1229   94.8185    2.1459 N.pl3   1  UNL1       -0.3329
     19 H          61.8143   94.6755    3.0698 H       1  UNL1        0.1466
     20 C          63.5727   95.0898    1.8729 C.3     1  UNL1        0.1211
     21 C          64.3495   94.1774    0.9707 C.3     1  UNL1        0.1522
     22 O          65.0478   92.9775    1.5385 O.3     1  UNL1       -0.3783
     23 H          64.8973   92.9387    2.4959 H       1  UNL1        0.2109
     24 C          64.4280   94.4651   -0.4994 C.ar    1  UNL1        0.0067
     25 C          65.0905   95.7206   -0.9837 C.ar    1  UNL1       -0.0018
     26 C          65.1690   96.0082   -2.4537 C.ar    1  UNL1        0.0006
     27 C          64.5849   95.0403   -3.4396 C.ar    1  UNL1        0.0114
     28 C          63.9224   93.7848   -2.9553 C.ar    1  UNL1        0.0574
     29 CL         63.3383   92.8168   -3.9412 Cl      1  UNL1       -0.0823
     30 C          63.8439   93.4971   -1.4853 C.ar    1  UNL1        0.0095
     31 C          61.4512   87.6513    9.7163 C.3     1  UNL1        0.0610
     32 C          60.7419   86.9859    8.5743 C.3     1  UNL1        0.0374
     33 C          60.1850   87.8126    7.4534 C.3     1  UNL1        0.0919
     34 N          60.3374   89.3046    7.4744 N.pl3   1  UNL1       -0.3103
     35 C          61.0467   89.9701    8.6164 C.3     1  UNL1        0.0919
     36 C          61.6036   89.1434    9.7373 C.3     1  UNL1        0.0374
     37 C          64.4072   85.0081   15.3310 C.3     1  UNL1        0.0948
     38 C          63.6788   84.3447   14.2000 C.2     1  UNL1        0.2262
     39 O          63.5073   82.8546   14.1899 O.2     1  UNL1       -0.2749
     40 N          63.1219   85.1714   13.0791 N.am    1  UNL1       -0.2767
     41 C          63.2934   86.6614   13.0892 C.3     1  UNL1        0.1107
     42 C          62.7365   87.4882   11.9682 C.3     1  UNL1        0.0939
     43 N          62.0081   86.8247   10.8372 N.3     1  UNL1       -0.2710
     44 C          61.8366   85.3346   10.8271 C.3     1  UNL1        0.0939
     45 C          62.3935   84.5079   11.9481 C.3     1  UNL1        0.1107
@<TRIPOS>BOND
     1    37    38    1
     2    38    39    2
     3    38    40   am
     4    40    41    1
     5    41    42    1
     6    42    43    1
     7    43    31    1
     8    31    32    1
     9    32    33    1
    10    33    34    1
    11    34     1    1
    12     1     2    2
    13     2     3    1
    14     3     4    1
    15     3     5    2
    16     5     6    1
    17     6     7    2
    18     7    11    1
    19    11    12    1
    20    12    18    1
    21    18    20    1
    22    20    21    1
    23    21    22    1
    24    21    24    1
    25    24    25   ar
    26    25    26   ar
    27    26    27   ar
    28    27    28   ar
    29    28    29    1
    30    28    30   ar
    31    12    13    2
    32    13    14    1
    33    14    15    2
    34    15    16    1
    35    16    17    2
    36     7     8    1
    37     8     9    2
    38     9    10    1
    39    34    35    1
    40    35    36    1
    41    43    44    1
    42    44    45    1
    43    45    40    1
    44    36    31    1
    45    10     1    1
    46     9     5    1
    47    16    11    1
    48    30    24   ar
    49    18    19    1
    50    22    23    1
@<TRIPOS>MOLECULE
*****
 45 50 0 0 0
SMALL
GASTEIGER

@<TRIPOS>ATOM
      1 C          59.8691   89.8025    6.4476 C.2     1  UNL1        0.0332
      2 C          58.3985   90.0188    6.2472 C.2     1  UNL1        0.0101
      3 C          57.9181   91.0146    5.2334 C.2     1  UNL1        0.0255
      4 C          56.4473   91.2309    5.0330 C.3     1  UNL1        0.0351
      5 C          58.9085   91.7939    4.4200 C.2     1  UNL1        0.2278
      6 N          58.7342   92.8355    3.3547 N.2     1  UNL1       -0.0345
      7 C          60.0971   93.2628    2.8968 C.2     1  UNL1        0.3649
      8 N          61.1139   92.4853    3.6790 N.2     1  UNL1       -0.0380
      9 C          60.3793   91.5775    4.6204 C.2     1  UNL1        0.2184
     10 C          60.8595   90.5818    5.6342 C.3     1  UNL1        0.1186
     11 C          60.3917   94.2876    1.8418 C.3     1  UNL1        0.2250
     12 C          60.8558   93.8534    0.4831 C.2     1  UNL1        0.0436
     13 C          61.1503   94.8783   -0.5718 C.2     1  UNL1        0.0288
     14 C          60.9808   96.3374   -0.2681 C.2     1  UNL1        0.0896
     15 N          60.5166   96.7717    1.0906 N.am    1  UNL1       -0.1770
     16 C          60.2221   95.7467    2.1455 C.2     1  UNL1        0.2627
     17 O          59.7580   96.1810    3.5042 O.2     1  UNL1       -0.2719
     18 N          61.0254   92.3943    0.1793 N.pl3   1  UNL1       -0.3329
     19 H          61.8769   91.9447    0.3841 H       1  UNL1        0.1466
     20 C          59.8976   91.6204   -0.4364 C.3     1  UNL1        0.1211
     21 C          58.6323   92.3234   -0.8295 C.3     1  UNL1        0.1522
     22 O          57.6429   92.7307    0.2219 O.3     1  UNL1       -0.3783
     23 H          57.9722   92.4669    1.0953 H       1  UNL1        0.2109
     24 C          58.3562   92.6191   -2.2739 C.ar    1  UNL1        0.0067
     25 C          59.2406   93.5676   -3.0276 C.ar    1  UNL1       -0.0018
     26 C          58.9646   93.8634   -4.4720 C.ar    1  UNL1        0.0006
     27 C          57.8041   93.2106   -5.1628 C.ar    1  UNL1        0.0114
     28 C          56.9197   92.2621   -4.4090 C.ar    1  UNL1        0.0574
     29 CL         55.7592   91.6093   -5.0998 Cl      1  UNL1       -0.0823
     30 C          57.1957   91.9663   -2.9646 C.ar    1  UNL1        0.0095
     31 C          61.3101   86.8151    9.4889 C.3     1  UNL1        0.0610
     32 C          61.5335   88.2813    9.7136 C.3     1  UNL1        0.0374
     33 C          61.0531   89.2771    8.6997 C.3     1  UNL1        0.0919
     34 N          60.3495   88.8067    7.4614 N.pl3   1  UNL1       -0.3103
     35 C          60.1261   87.3405    7.2368 C.3     1  UNL1        0.0919
     36 C          60.6064   86.3448    8.2506 C.3     1  UNL1        0.0374
     37 C          63.8697   81.5516   13.0936 C.3     1  UNL1        0.0948
     38 C          63.2314   82.8320   13.5441 C.2     1  UNL1        0.2262
     39 O          63.0733   83.1167   15.0082 O.2     1  UNL1       -0.2749
     40 N          62.7510   83.8278   12.5302 N.am    1  UNL1       -0.2767
     41 C          62.9091   83.5432   11.0661 C.3     1  UNL1        0.1107
     42 C          62.4288   84.5389   10.0522 C.3     1  UNL1        0.0939
     43 N          61.7904   85.8194   10.5027 N.3     1  UNL1       -0.2710
     44 C          61.6324   86.1040   11.9669 C.3     1  UNL1        0.0939
     45 C          62.1127   85.1083   12.9807 C.3     1  UNL1        0.1107
@<TRIPOS>BOND
     1    37    38    1
     2    38    39    2
     3    38    40   am
     4    40    41    1
     5    41    42    1
     6    42    43    1
     7    43    31    1
     8    31    32    1
     9    32    33    1
    10    33    34    1
    11    34     1    1
    12     1     2    2
    13     2     3    1
    14     3     4    1
    15     3     5    2
    16     5     6    1
    17     6     7    2
    18     7    11    1
    19    11    12    1
    20    12    18    1
    21    18    20    1
    22    20    21    1
    23    21    22    1
    24    21    24    1
    25    24    25   ar
    26    25    26   ar
    27    26    27   ar
    28    27    28   ar
    29    28    29    1
    30    28    30   ar
    31    12    13    2
    32    13    14    1
    33    14    15    2
    34    15    16    1
    35    16    17    2
    36     7     8    1
    37     8     9    2
    38     9    10    1
    39    34    35    1
    40    35    36    1
    41    43    44    1
    42    44    45    1
    43    45    40    1
    44    36    31    1
    45    10     1    1
    46     9     5    1
    47    16    11    1
    48    30    24   ar
    49    18    19    1
    50    22    23    1
@<TRIPOS>MOLECULE
*****
 45 50 0 0 0
SMALL
GASTEIGER

@<TRIPOS>ATOM
      1 C          59.7741   89.9756    6.4312 C.2     1  UNL1        0.0332
      2 C          58.2921   90.1677    6.3029 C.2     1  UNL1        0.0101
      3 C          57.7396   91.0301    5.2069 C.2     1  UNL1        0.0255
      4 C          56.2574   91.2222    5.0786 C.3     1  UNL1        0.0351
      5 C          58.6693   91.7004    4.2393 C.2     1  UNL1        0.2278
      6 N          58.4185   92.6013    3.0666 N.2     1  UNL1       -0.0345
      7 C          59.7456   92.9661    2.4701 C.2     1  UNL1        0.3649
      8 N          60.8166   92.2905    3.2742 N.2     1  UNL1       -0.0380
      9 C          60.1514   91.5083    4.3677 C.2     1  UNL1        0.2184
     10 C          60.7038   90.6459    5.4636 C.3     1  UNL1        0.1186
     11 C          59.9635   93.8510    1.2787 C.3     1  UNL1        0.2250
     12 C          59.0500   93.7510    0.0931 C.2     1  UNL1        0.0436
     13 C          59.2680   94.6360   -1.0983 C.2     1  UNL1        0.0288
     14 C          60.3993   95.6208   -1.1041 C.2     1  UNL1        0.0896
     15 N          61.3128   95.7208    0.0814 N.am    1  UNL1       -0.1770
     16 C          61.0948   94.8358    1.2728 C.2     1  UNL1        0.2627
     17 O          62.0083   94.9358    2.4584 O.2     1  UNL1       -0.2719
     18 N          57.9187   92.7662    0.0989 N.pl3   1  UNL1       -0.3329
     19 H          57.4145   92.6006    0.9281 H       1  UNL1        0.1466
     20 C          57.5555   92.0336   -1.1587 C.3     1  UNL1        0.1211
     21 C          56.5083   92.5920   -2.0761 C.3     1  UNL1        0.1522
     22 O          55.2183   93.1113   -1.5138 O.3     1  UNL1       -0.3783
     23 H          55.2234   93.0130   -0.5488 H       1  UNL1        0.2109
     24 C          56.7511   92.6310   -3.5557 C.ar    1  UNL1        0.0067
     25 C          57.8306   93.5090   -4.1158 C.ar    1  UNL1       -0.0018
     26 C          58.0735   93.5481   -5.5955 C.ar    1  UNL1        0.0006
     27 C          57.2367   92.7090   -6.5152 C.ar    1  UNL1        0.0114
     28 C          56.1572   91.8310   -5.9552 C.ar    1  UNL1        0.0574
     29 CL         55.3205   90.9919   -6.8749 Cl      1  UNL1       -0.0823
     30 C          55.9144   91.7919   -4.4755 C.ar    1  UNL1        0.0095
     31 C          61.4314   87.3885    9.7192 C.3     1  UNL1        0.0610
     32 C          60.7604   86.7581    8.5350 C.3     1  UNL1        0.0374
     33 C          60.2080   87.6206    7.4390 C.3     1  UNL1        0.0919
     34 N          60.3265   89.1132    7.5272 N.pl3   1  UNL1       -0.3103
     35 C          60.9975   89.7436    8.7114 C.3     1  UNL1        0.0919
     36 C          61.5500   88.8812    9.8074 C.3     1  UNL1        0.0374
     37 C          63.5273   82.4463   14.0124 C.3     1  UNL1        0.0948
     38 C          63.6413   83.9392   14.1031 C.2     1  UNL1        0.2262
     39 O          64.3076   84.5698   15.2898 O.2     1  UNL1       -0.2749
     40 N          63.0888   84.8015   13.0071 N.am    1  UNL1       -0.2767
     41 C          62.4224   84.1710   11.8204 C.3     1  UNL1        0.1107
     42 C          61.8699   85.0333   10.7244 C.3     1  UNL1        0.0939
     43 N          61.9839   86.5262   10.8151 N.3     1  UNL1       -0.2710
     44 C          62.6502   87.1568   12.0019 C.3     1  UNL1        0.0939
     45 C          63.2027   86.2944   13.0979 C.3     1  UNL1        0.1107
@<TRIPOS>BOND
     1    37    38    1
     2    38    39    2
     3    38    40   am
     4    40    41    1
     5    41    42    1
     6    42    43    1
     7    43    31    1
     8    31    32    1
     9    32    33    1
    10    33    34    1
    11    34     1    1
    12     1     2    2
    13     2     3    1
    14     3     4    1
    15     3     5    2
    16     5     6    1
    17     6     7    2
    18     7    11    1
    19    11    12    1
    20    12    18    1
    21    18    20    1
    22    20    21    1
    23    21    22    1
    24    21    24    1
    25    24    25   ar
    26    25    26   ar
    27    26    27   ar
    28    27    28   ar
    29    28    29    1
    30    28    30   ar
    31    12    13    2
    32    13    14    1
    33    14    15    2
    34    15    16    1
    35    16    17    2
    36     7     8    1
    37     8     9    2
    38     9    10    1
    39    34    35    1
    40    35    36    1
    41    43    44    1
    42    44    45    1
    43    45    40    1
    44    36    31    1
    45    10     1    1
    46     9     5    1
    47    16    11    1
    48    30    24   ar
    49    18    19    1
    50    22    23    1
@<TRIPOS>MOLECULE
*****
 45 50 0 0 0
SMALL
GASTEIGER

@<TRIPOS>ATOM
      1 C          60.2033   90.0269    6.7305 C.2     1  UNL1        0.0332
      2 C          59.3576   88.8217    7.0168 C.2     1  UNL1        0.0101
      3 C          59.5829   88.0276    8.2694 C.2     1  UNL1        0.0255
      4 C          58.7370   86.8223    8.5556 C.3     1  UNL1        0.0351
      5 C          60.6540   88.4389    9.2356 C.2     1  UNL1        0.2278
      6 N          61.1045   87.8562   10.5423 N.2     1  UNL1       -0.0345
      7 C          62.2287   88.7014   11.0636 C.2     1  UNL1        0.3649
      8 N          62.4730   89.8064   10.0790 N.2     1  UNL1       -0.0380
      9 C          61.4998   89.6441    8.9492 C.2     1  UNL1        0.2184
     10 C          61.2744   90.4381    7.6967 C.3     1  UNL1        0.1186
     11 C          62.9772   88.4805   12.3446 C.3     1  UNL1        0.2250
     12 C          63.5321   89.6512   13.1005 C.2     1  UNL1        0.0436
     13 C          64.2806   89.4302   14.3815 C.2     1  UNL1        0.0288
     14 C          64.4743   88.0385   14.9065 C.2     1  UNL1        0.0896
     15 N          63.9194   86.8677   14.1506 N.am    1  UNL1       -0.1770
     16 C          63.1709   87.0888   12.8696 C.2     1  UNL1        0.2627
     17 O          62.6161   85.9180   12.1136 O.2     1  UNL1       -0.2719
     18 N          63.3385   91.0429   12.5756 N.pl3   1  UNL1       -0.3329
     19 H          62.6478   91.6251   12.9672 H       1  UNL1        0.1466
     20 C          64.1971   91.5477   11.4540 C.3     1  UNL1        0.1211
     21 C          65.1914   92.6424   11.7049 C.3     1  UNL1        0.1522
     22 O          65.0696   93.9478   10.9762 O.3     1  UNL1       -0.3783
     23 H          64.3004   93.9181   10.3860 H       1  UNL1        0.2109
     24 C          66.3076   92.4316   12.6845 C.ar    1  UNL1        0.0067
     25 C          67.6553   91.9845   12.2012 C.ar    1  UNL1       -0.0018
     26 C          68.7715   91.7737   13.1808 C.ar    1  UNL1        0.0006
     27 C          68.5401   92.0101   14.6438 C.ar    1  UNL1        0.0114
     28 C          67.1924   92.4573   15.1272 C.ar    1  UNL1        0.0574
     29 CL         66.9609   92.6937   16.5902 Cl      1  UNL1       -0.0823
     30 C          66.0762   92.6680   14.1476 C.ar    1  UNL1        0.0095
     31 C          59.5273   92.4090    2.9731 C.3     1  UNL1        0.0610
     32 C          60.9159   91.9907    3.3562 C.3     1  UNL1        0.0374
     33 C          61.1412   91.1967    4.6088 C.3     1  UNL1        0.0919
     34 N          59.9780   90.8209    5.4780 N.pl3   1  UNL1       -0.3103
     35 C          58.5894   91.2392    5.0949 C.3     1  UNL1        0.0919
     36 C          58.3641   92.0333    3.8424 C.3     1  UNL1        0.0374
     37 C          59.3892   96.8557   -2.2670 C.3     1  UNL1        0.0948
     38 C          58.6258   95.5852   -2.0369 C.2     1  UNL1        0.2262
     39 O          57.6371   95.1087   -3.0592 O.2     1  UNL1       -0.2749
     40 N          58.8512   94.7911   -0.7843 N.am    1  UNL1       -0.2767
     41 C          59.8399   95.2676    0.2380 C.3     1  UNL1        0.1107
     42 C          60.0654   94.4736    1.4905 C.3     1  UNL1        0.0939
     43 N          59.3019   93.2031    1.7206 N.3     1  UNL1       -0.2710
     44 C          58.3131   92.7266    0.6982 C.3     1  UNL1        0.0939
     45 C          58.0878   93.5206   -0.5543 C.3     1  UNL1        0.1107
@<TRIPOS>BOND
     1    37    38    1
     2    38    39    2
     3    38    40   am
     4    40    41    1
     5    41    42    1
     6    42    43    1
     7    43    31    1
     8    31    32    1
     9    32    33    1
    10    33    34    1
    11    34     1    1
    12     1     2    2
    13     2     3    1
    14     3     4    1
    15     3     5    2
    16     5     6    1
    17     6     7    2
    18     7    11    1
    19    11    12    1
    20    12    18    1
    21    18    20    1
    22    20    21    1
    23    21    22    1
    24    21    24    1
    25    24    25   ar
    26    25    26   ar
    27    26    27   ar
    28    27    28   ar
    29    28    29    1
    30    28    30   ar
    31    12    13    2
    32    13    14    1
    33    14    15    2
    34    15    16    1
    35    16    17    2
    36     7     8    1
    37     8     9    2
    38     9    10    1
    39    34    35    1
    40    35    36    1
    41    43    44    1
    42    44    45    1
    43    45    40    1
    44    36    31    1
    45    10     1    1
    46     9     5    1
    47    16    11    1
    48    30    24   ar
    49    18    19    1
    50    22    23    1
@<TRIPOS>MOLECULE
*****
 45 50 0 0 0
SMALL
GASTEIGER

@<TRIPOS>ATOM
      1 C          60.3262   90.1414    6.8775 C.2     1  UNL1        0.0332
      2 C          59.5399   88.8974    7.1677 C.2     1  UNL1        0.0101
      3 C          59.7841   88.1346    8.4361 C.2     1  UNL1        0.0255
      4 C          58.9978   86.8906    8.7263 C.3     1  UNL1        0.0351
      5 C          60.8145   88.6159    9.4141 C.2     1  UNL1        0.2278
      6 N          61.2714   88.0769   10.7373 N.2     1  UNL1       -0.0345
      7 C          62.3401   88.9878   11.2647 C.2     1  UNL1        0.3649
      8 N          62.5437   90.0898   10.2676 N.2     1  UNL1       -0.0380
      9 C          61.6008   89.8599    9.1238 C.2     1  UNL1        0.2184
     10 C          61.3566   90.6226    7.8555 C.3     1  UNL1        0.1186
     11 C          63.0760   88.8253   12.5617 C.3     1  UNL1        0.2250
     12 C          63.3945   87.4529   13.0764 C.2     1  UNL1        0.0436
     13 C          64.1305   87.2905   14.3734 C.2     1  UNL1        0.0288
     14 C          64.5479   88.5004   15.1556 C.2     1  UNL1        0.0896
     15 N          64.2293   89.8729   14.6408 N.am    1  UNL1       -0.1770
     16 C          63.4934   90.0353   13.3438 C.2     1  UNL1        0.2627
     17 O          63.1748   91.4077   12.8291 O.2     1  UNL1       -0.2719
     18 N          62.9772   86.2429   12.2943 N.pl3   1  UNL1       -0.3329
     19 H          62.3516   86.3362   11.5399 H       1  UNL1        0.1466
     20 C          63.5130   84.8909   12.6616 C.3     1  UNL1        0.1211
     21 C          62.7059   83.9760   13.5342 C.3     1  UNL1        0.1522
     22 O          62.0091   84.5179   14.7470 O.3     1  UNL1       -0.3783
     23 H          62.1819   85.4695   14.8210 H       1  UNL1        0.2109
     24 C          62.5955   82.5193   13.1941 C.ar    1  UNL1        0.0067
     25 C          62.1991   81.5305   14.2500 C.ar    1  UNL1       -0.0018
     26 C          62.0887   80.0737   13.9098 C.ar    1  UNL1        0.0006
     27 C          62.3747   79.6058   12.5137 C.ar    1  UNL1        0.0114
     28 C          62.7711   80.5946   11.4577 C.ar    1  UNL1        0.0574
     29 CL         63.0571   80.1267   10.0616 Cl      1  UNL1       -0.0823
     30 C          62.8815   82.0514   11.7979 C.ar    1  UNL1        0.0095
     31 C          59.5936   92.4297    3.0726 C.3     1  UNL1        0.0610
     32 C          60.9878   92.0201    3.4448 C.3     1  UNL1        0.0374
     33 C          61.2319   91.2573    4.7132 C.3     1  UNL1        0.0919
     34 N          60.0820   90.9042    5.6092 N.pl3   1  UNL1       -0.3103
     35 C          58.6879   91.3137    5.2369 C.3     1  UNL1        0.0919
     36 C          58.4437   92.0765    3.9686 C.3     1  UNL1        0.0374
     37 C          57.7978   94.8687   -3.0980 C.3     1  UNL1        0.0948
     38 C          58.6169   95.4809   -2.0005 C.2     1  UNL1        0.2262
     39 O          59.1917   96.8557   -2.1713 O.2     1  UNL1       -0.2749
     40 N          58.8610   94.7180   -0.7322 N.am    1  UNL1       -0.2767
     41 C          58.2862   93.3432   -0.5614 C.3     1  UNL1        0.1107
     42 C          58.5304   92.5803    0.7069 C.3     1  UNL1        0.0939
     43 N          59.3494   93.1925    1.8043 N.3     1  UNL1       -0.2710
     44 C          59.9243   94.5674    1.6335 C.3     1  UNL1        0.0939
     45 C          59.6801   95.3301    0.3652 C.3     1  UNL1        0.1107
@<TRIPOS>BOND
     1    37    38    1
     2    38    39    2
     3    38    40   am
     4    40    41    1
     5    41    42    1
     6    42    43    1
     7    43    31    1
     8    31    32    1
     9    32    33    1
    10    33    34    1
    11    34     1    1
    12     1     2    2
    13     2     3    1
    14     3     4    1
    15     3     5    2
    16     5     6    1
    17     6     7    2
    18     7    11    1
    19    11    12    1
    20    12    18    1
    21    18    20    1
    22    20    21    1
    23    21    22    1
    24    21    24    1
    25    24    25   ar
    26    25    26   ar
    27    26    27   ar
    28    27    28   ar
    29    28    29    1
    30    28    30   ar
    31    12    13    2
    32    13    14    1
    33    14    15    2
    34    15    16    1
    35    16    17    2
    36     7     8    1
    37     8     9    2
    38     9    10    1
    39    34    35    1
    40    35    36    1
    41    43    44    1
    42    44    45    1
    43    45    40    1
    44    36    31    1
    45    10     1    1
    46     9     5    1
    47    16    11    1
    48    30    24   ar
    49    18    19    1
    50    22    23    1
@<TRIPOS>MOLECULE
*****
 45 50 0 0 0
SMALL
GASTEIGER

@<TRIPOS>ATOM
      1 C          60.3929   89.2873    8.0201 C.2     1  UNL1        0.0332
      2 C          59.6452   89.6125    9.2790 C.2     1  UNL1        0.0101
      3 C          59.8574   88.7854   10.5124 C.2     1  UNL1        0.0255
      4 C          59.1096   89.1107   11.7714 C.3     1  UNL1        0.0351
      5 C          60.8173   87.6331   10.4866 C.2     1  UNL1        0.2278
      6 N          61.2298   86.6468   11.5387 N.2     1  UNL1       -0.0345
      7 C          62.2325   85.7119   10.9299 C.2     1  UNL1        0.3649
      8 N          62.4397   86.1205    9.5016 N.2     1  UNL1       -0.0380
      9 C          61.5651   87.3079    9.2276 C.2     1  UNL1        0.2184
     10 C          61.3529   88.1350    7.9944 C.3     1  UNL1        0.1186
     11 C          62.9093   84.5691   11.6271 C.3     1  UNL1        0.2250
     12 C          63.3083   84.6995   13.0671 C.2     1  UNL1        0.0436
     13 C          63.9851   83.5566   13.7642 C.2     1  UNL1        0.0288
     14 C          64.2627   82.2834   13.0213 C.2     1  UNL1        0.0896
     15 N          63.8637   82.1531   11.5812 N.am    1  UNL1       -0.1770
     16 C          63.1869   83.2960   10.8842 C.2     1  UNL1        0.2627
     17 O          62.7879   83.1656    9.4441 O.2     1  UNL1       -0.2719
     18 N          63.0307   85.9726   13.8101 N.pl3   1  UNL1       -0.3329
     19 H          62.1018   86.2484   13.9840 H       1  UNL1        0.1466
     20 C          64.1683   86.8254   14.2881 C.3     1  UNL1        0.1211
     21 C          63.9018   88.2035   14.8171 C.3     1  UNL1        0.1522
     22 O          63.4168   88.3857   16.2248 O.3     1  UNL1       -0.3783
     23 H          63.3291   87.5189   16.6513 H       1  UNL1        0.2109
     24 C          64.1203   89.3993   13.9384 C.ar    1  UNL1        0.0067
     25 C          65.0821   90.4717   14.3566 C.ar    1  UNL1       -0.0018
     26 C          65.3006   91.6676   13.4779 C.ar    1  UNL1        0.0006
     27 C          64.5572   91.7911   12.1810 C.ar    1  UNL1        0.0114
     28 C          63.5954   90.7188   11.7628 C.ar    1  UNL1        0.0574
     29 CL         62.8520   90.8424   10.4658 Cl      1  UNL1       -0.0823
     30 C          63.3769   89.5229   12.6414 C.ar    1  UNL1        0.0095
     31 C          59.7564   91.7684    4.3203 C.3     1  UNL1        0.0610
     32 C          61.1433   91.3611    4.7206 C.3     1  UNL1        0.0374
     33 C          61.3555   90.5340    5.9539 C.3     1  UNL1        0.0919
     34 N          60.1808   90.1144    6.7868 N.pl3   1  UNL1       -0.3103
     35 C          58.7938   90.5217    6.3864 C.3     1  UNL1        0.0919
     36 C          58.5816   91.3487    5.1532 C.3     1  UNL1        0.0374
     37 C          58.0296   94.5658   -1.7166 C.3     1  UNL1        0.0948
     38 C          58.9075   95.0767   -0.6128 C.2     1  UNL1        0.2262
     39 O          59.5732   96.4145   -0.7423 O.2     1  UNL1       -0.2749
     40 N          59.1197   94.2495    0.6205 N.am    1  UNL1       -0.2767
     41 C          58.4541   92.9117    0.7500 C.3     1  UNL1        0.1107
     42 C          58.6662   92.0846    1.9833 C.3     1  UNL1        0.0939
     43 N          59.5441   92.5955    3.0870 N.3     1  UNL1       -0.2710
     44 C          60.2098   93.9334    2.9575 C.3     1  UNL1        0.0939
     45 C          59.9976   94.7605    1.7242 C.3     1  UNL1        0.1107
@<TRIPOS>BOND
     1    37    38    1
     2    38    39    2
     3    38    40   am
     4    40    41    1
     5    41    42    1
     6    42    43    1
     7    43    31    1
     8    31    32    1
     9    32    33    1
    10    33    34    1
    11    34     1    1
    12     1     2    2
    13     2     3    1
    14     3     4    1
    15     3     5    2
    16     5     6    1
    17     6     7    2
    18     7    11    1
    19    11    12    1
    20    12    18    1
    21    18    20    1
    22    20    21    1
    23    21    22    1
    24    21    24    1
    25    24    25   ar
    26    25    26   ar
    27    26    27   ar
    28    27    28   ar
    29    28    29    1
    30    28    30   ar
    31    12    13    2
    32    13    14    1
    33    14    15    2
    34    15    16    1
    35    16    17    2
    36     7     8    1
    37     8     9    2
    38     9    10    1
    39    34    35    1
    40    35    36    1
    41    43    44    1
    42    44    45    1
    43    45    40    1
    44    36    31    1
    45    10     1    1
    46     9     5    1
    47    16    11    1
    48    30    24   ar
    49    18    19    1
    50    22    23    1
