@<TRIPOS>MOLECULE
*****
 32 35 0 0 0
SMALL
GASTEIGER

@<TRIPOS>ATOM
      1 O          62.4126   87.9968   16.8256 O.2     1  UNL1       -0.2733
      2 C          63.5458   87.5296   15.9610 C.2     1  UNL1        0.2426
      3 N          64.1127   88.4389   14.9114 N.am    1  UNL1       -0.3023
      4 H          64.8565   88.1323   14.3439 H       1  UNL1        0.1495
      5 C          64.1122   86.1530   16.1460 C.3     1  UNL1        0.1759
      6 N          64.1732   85.2049   14.9852 N.am    1  UNL1       -0.2931
      7 C          62.9452   84.4520   14.5664 C.2     1  UNL1        0.2462
      8 O          61.6564   84.6471   15.3085 O.2     1  UNL1       -0.2701
      9 H          65.0191   85.0769   14.4981 H       1  UNL1        0.1502
     10 C          63.0062   83.5039   13.4056 C.ar    1  UNL1        0.0535
     11 C          62.6090   82.0690   13.5876 C.ar    1  UNL1        0.0068
     12 C          62.6700   81.1209   12.4268 C.ar    1  UNL1        0.0298
     13 C          63.1281   81.6078   11.0840 C.ar    1  UNL1        0.1401
     14 F          63.1891   80.6597    9.9232 F       1  UNL1       -0.2042
     15 C          63.5253   83.0427   10.9021 C.ar    1  UNL1        0.0298
     16 C          63.4644   83.9909   12.0628 C.ar    1  UNL1        0.0068
     17 C          63.5464   89.8156   14.7264 C.3     1  UNL1        0.0981
     18 C          64.0009   90.6653   13.5769 C.3     1  UNL1        0.0635
     19 C          63.3140   90.4108   12.2679 C.ar    1  UNL1       -0.0207
     20 C          62.2856   89.3258   12.3905 C.ar    1  UNL1       -0.0042
     21 C          61.4819   88.9153   11.1924 C.ar    1  UNL1       -0.0003
     22 C          61.7067   89.5898    9.8716 C.ar    1  UNL1       -0.0003
     23 C          62.7351   90.6748    9.7489 C.ar    1  UNL1       -0.0046
     24 C          63.5388   91.0853   10.9471 C.ar    1  UNL1       -0.0254
     25 C          64.5060   92.1809   10.6091 C.3     1  UNL1        0.0307
     26 C          65.4872   92.8726   11.5083 C.3     1  UNL1        0.0307
     27 C          65.7436   92.6395   12.9678 C.ar    1  UNL1       -0.0254
     28 C          66.8152   93.5510   13.4883 C.ar    1  UNL1       -0.0046
     29 C          67.2254   93.4800   14.9294 C.ar    1  UNL1       -0.0003
     30 C          66.5639   92.4977   15.8500 C.ar    1  UNL1       -0.0003
     31 C          65.4923   91.5863   15.3295 C.ar    1  UNL1       -0.0042
     32 C          65.0822   91.6572   13.8884 C.ar    1  UNL1       -0.0207
@<TRIPOS>BOND
     1     1     2    2
     2     2     5    1
     3     5     6    1
     4     6     7   am
     5     7     8    2
     6     7    10    1
     7    10    11   ar
     8    11    12   ar
     9    12    13   ar
    10    13    14    1
    11    13    15   ar
    12    15    16   ar
    13     2     3   am
    14     3    17    1
    15    17    18    1
    16    18    19    1
    17    19    20   ar
    18    20    21   ar
    19    21    22   ar
    20    22    23   ar
    21    23    24   ar
    22    24    25    1
    23    25    26    1
    24    26    27    1
    25    27    28   ar
    26    28    29   ar
    27    29    30   ar
    28    30    31   ar
    29    31    32   ar
    30    16    10   ar
    31    32    18    1
    32    24    19   ar
    33    32    27   ar
    34     6     9    1
    35     3     4    1
@<TRIPOS>MOLECULE
*****
 32 35 0 0 0
SMALL
GASTEIGER

@<TRIPOS>ATOM
      1 O          62.4388   87.9485   16.8199 O.2     1  UNL1       -0.2733
      2 C          63.5668   87.4774   15.9505 C.2     1  UNL1        0.2426
      3 N          64.1448   88.3914   14.9111 N.am    1  UNL1       -0.3023
      4 H          64.8851   88.0822   14.3405 H       1  UNL1        0.1495
      5 C          64.1167   86.0922   16.1205 C.3     1  UNL1        0.1759
      6 N          64.1667   85.1563   14.9494 N.am    1  UNL1       -0.2931
      7 C          62.9463   84.3753   14.5608 C.2     1  UNL1        0.2462
      8 O          61.6761   84.5303   15.3433 O.2     1  UNL1       -0.2701
      9 H          65.0004   85.0545   14.4358 H       1  UNL1        0.1502
     10 C          62.9963   83.4393   13.3897 C.ar    1  UNL1        0.0535
     11 C          62.5836   82.0069   13.5564 C.ar    1  UNL1        0.0068
     12 C          62.6336   81.0709   12.3853 C.ar    1  UNL1        0.0298
     13 C          63.0963   81.5674   11.0475 C.ar    1  UNL1        0.1401
     14 F          63.1463   80.6314    9.8764 F       1  UNL1       -0.2042
     15 C          63.5090   82.9998   10.8810 C.ar    1  UNL1        0.0298
     16 C          63.4590   83.9358   12.0520 C.ar    1  UNL1        0.0068
     17 C          63.5949   89.7766   14.7411 C.3     1  UNL1        0.0981
     18 C          64.0386   90.6230   13.5849 C.3     1  UNL1        0.0635
     19 C          65.0935   91.6440   13.8928 C.ar    1  UNL1       -0.0207
     20 C          65.4934   91.6001   15.3378 C.ar    1  UNL1       -0.0042
     21 C          66.5389   92.5429   15.8555 C.ar    1  UNL1       -0.0003
     22 C          67.1845   93.5295   14.9282 C.ar    1  UNL1       -0.0003
     23 C          66.7846   93.5734   13.4832 C.ar    1  UNL1       -0.0046
     24 C          65.7391   92.6306   12.9655 C.ar    1  UNL1       -0.0254
     25 C          65.4891   92.8399   11.5013 C.3     1  UNL1        0.0307
     26 C          64.5319   92.1144   10.6028 C.3     1  UNL1        0.0307
     27 C          63.5882   91.0002   10.9466 C.ar    1  UNL1       -0.0254
     28 C          62.8043   90.5564    9.7472 C.ar    1  UNL1       -0.0046
     29 C          61.8007   89.4488    9.8750 C.ar    1  UNL1       -0.0003
     30 C          61.5812   88.7851   11.2021 C.ar    1  UNL1       -0.0003
     31 C          62.3651   89.2290   12.4015 C.ar    1  UNL1       -0.0042
     32 C          63.3686   90.3365   12.2737 C.ar    1  UNL1       -0.0207
@<TRIPOS>BOND
     1     1     2    2
     2     2     5    1
     3     5     6    1
     4     6     7   am
     5     7     8    2
     6     7    10    1
     7    10    11   ar
     8    11    12   ar
     9    12    13   ar
    10    13    14    1
    11    13    15   ar
    12    15    16   ar
    13     2     3   am
    14     3    17    1
    15    17    18    1
    16    18    19    1
    17    19    20   ar
    18    20    21   ar
    19    21    22   ar
    20    22    23   ar
    21    23    24   ar
    22    24    25    1
    23    25    26    1
    24    26    27    1
    25    27    28   ar
    26    28    29   ar
    27    29    30   ar
    28    30    31   ar
    29    31    32   ar
    30    16    10   ar
    31    32    18    1
    32    24    19   ar
    33    32    27   ar
    34     6     9    1
    35     3     4    1
@<TRIPOS>MOLECULE
*****
 32 35 0 0 0
SMALL
GASTEIGER

@<TRIPOS>ATOM
      1 O          62.9235   88.0456   16.9808 O.2     1  UNL1       -0.2733
      2 C          63.7031   87.4775   15.8321 C.2     1  UNL1        0.2426
      3 N          64.0523   88.3461   14.6601 N.am    1  UNL1       -0.3023
      4 H          64.5640   87.9732   13.9062 H       1  UNL1        0.1495
      5 C          64.1336   86.0408   15.8554 C.3     1  UNL1        0.1759
      6 N          64.0465   85.2115   14.6085 N.am    1  UNL1       -0.2931
      7 C          63.5186   83.8090   14.6760 C.2     1  UNL1        0.2462
      8 O          63.0780   83.2359   15.9902 O.2     1  UNL1       -0.2701
      9 H          64.3357   85.5877   13.7459 H       1  UNL1        0.1502
     10 C          63.4315   82.9797   13.4291 C.ar    1  UNL1        0.0535
     11 C          64.0509   83.4733   12.1553 C.ar    1  UNL1        0.0068
     12 C          63.9637   82.6440   10.9084 C.ar    1  UNL1        0.0298
     13 C          63.2571   81.3211   10.9353 C.ar    1  UNL1        0.1401
     14 F          63.1700   80.4918    9.6885 F       1  UNL1       -0.2042
     15 C          62.6378   80.8276   12.2092 C.ar    1  UNL1        0.0298
     16 C          62.7249   81.6568   13.4561 C.ar    1  UNL1        0.0068
     17 C          63.6218   89.7829   14.6368 C.3     1  UNL1        0.0981
     18 C          64.0680   90.6815   13.5217 C.3     1  UNL1        0.0635
     19 C          63.3840   90.4714   12.2033 C.ar    1  UNL1       -0.0207
     20 C          62.3666   89.3721   12.2828 C.ar    1  UNL1       -0.0042
     21 C          61.5674   89.0008   11.0690 C.ar    1  UNL1       -0.0003
     22 C          61.7856   89.7287    9.7757 C.ar    1  UNL1       -0.0003
     23 C          62.8031   90.8279    9.6963 C.ar    1  UNL1       -0.0046
     24 C          63.6023   91.1993   10.9100 C.ar    1  UNL1       -0.0254
     25 C          64.5584   92.3170   10.6158 C.3     1  UNL1        0.0307
     26 C          65.5324   92.9829   11.5420 C.3     1  UNL1        0.0307
     27 C          65.7909   92.6954   12.9914 C.ar    1  UNL1       -0.0254
     28 C          66.8531   93.5965   13.5478 C.ar    1  UNL1       -0.0046
     29 C          67.2637   93.4734   14.9853 C.ar    1  UNL1       -0.0003
     30 C          66.6120   92.4492   15.8663 C.ar    1  UNL1       -0.0003
     31 C          65.5497   91.5481   15.3099 C.ar    1  UNL1       -0.0042
     32 C          65.1392   91.6712   13.8724 C.ar    1  UNL1       -0.0207
@<TRIPOS>BOND
     1     1     2    2
     2     2     5    1
     3     5     6    1
     4     6     7   am
     5     7     8    2
     6     7    10    1
     7    10    11   ar
     8    11    12   ar
     9    12    13   ar
    10    13    14    1
    11    13    15   ar
    12    15    16   ar
    13     2     3   am
    14     3    17    1
    15    17    18    1
    16    18    19    1
    17    19    20   ar
    18    20    21   ar
    19    21    22   ar
    20    22    23   ar
    21    23    24   ar
    22    24    25    1
    23    25    26    1
    24    26    27    1
    25    27    28   ar
    26    28    29   ar
    27    29    30   ar
    28    30    31   ar
    29    31    32   ar
    30    16    10   ar
    31    32    18    1
    32    24    19   ar
    33    32    27   ar
    34     6     9    1
    35     3     4    1
@<TRIPOS>MOLECULE
*****
 32 35 0 0 0
SMALL
GASTEIGER

@<TRIPOS>ATOM
      1 O          61.2054   85.5581    7.4850 O.2     1  UNL1       -0.2733
      2 C          60.3363   86.2402    8.4996 C.2     1  UNL1        0.2426
      3 N          60.7825   86.3322    9.9288 N.am    1  UNL1       -0.3023
      4 H          60.2121   86.7799   10.5947 H       1  UNL1        0.1495
      5 C          59.0211   86.8305    8.0852 C.3     1  UNL1        0.1759
      6 N          58.9653   87.8238    6.9626 N.am    1  UNL1       -0.2931
      7 C          59.4325   89.2320    7.1833 C.2     1  UNL1        0.2462
      8 O          59.9554   89.6469    8.5265 O.2     1  UNL1       -0.2701
      9 H          58.6221   87.5515    6.0810 H       1  UNL1        0.1502
     10 C          59.3767   90.2254    6.0607 C.ar    1  UNL1        0.0535
     11 C          60.6382   90.6408    5.3636 C.ar    1  UNL1        0.0068
     12 C          60.5824   91.6342    4.2410 C.ar    1  UNL1        0.0298
     13 C          59.2651   92.2120    3.8155 C.ar    1  UNL1        0.1401
     14 F          59.2093   93.2053    2.6929 F       1  UNL1       -0.2042
     15 C          58.0037   91.7964    4.5127 C.ar    1  UNL1        0.0298
     16 C          58.0594   90.8031    5.6353 C.ar    1  UNL1        0.0068
     17 C          62.0978   85.7420   10.3433 C.3     1  UNL1        0.0981
     18 C          62.7363   86.1646   11.6332 C.3     1  UNL1        0.0635
     19 C          63.0706   85.0567   12.5875 C.ar    1  UNL1       -0.0207
     20 C          62.6829   83.7187   12.0314 C.ar    1  UNL1       -0.0042
     21 C          62.9319   82.4738   12.8302 C.ar    1  UNL1       -0.0003
     22 C          63.5686   82.5669   14.1852 C.ar    1  UNL1       -0.0003
     23 C          63.9562   83.9049   14.7413 C.ar    1  UNL1       -0.0046
     24 C          63.7073   85.1498   13.9425 C.ar    1  UNL1       -0.0254
     25 C          64.1668   86.3739   14.6777 C.3     1  UNL1        0.0307
     26 C          64.1033   87.8071   14.2397 C.3     1  UNL1        0.0307
     27 C          63.5644   88.3702   12.9580 C.ar    1  UNL1       -0.0254
     28 C          63.6918   89.8643   12.9196 C.ar    1  UNL1       -0.0046
     29 C          63.2109   90.6274   11.7210 C.ar    1  UNL1       -0.0003
     30 C          62.6026   89.8965   10.5611 C.ar    1  UNL1       -0.0003
     31 C          62.4751   88.4024   10.5995 C.ar    1  UNL1       -0.0042
     32 C          62.9560   87.6392   11.7980 C.ar    1  UNL1       -0.0207
@<TRIPOS>BOND
     1     1     2    2
     2     2     5    1
     3     5     6    1
     4     6     7   am
     5     7     8    2
     6     7    10    1
     7    10    11   ar
     8    11    12   ar
     9    12    13   ar
    10    13    14    1
    11    13    15   ar
    12    15    16   ar
    13     2     3   am
    14     3    17    1
    15    17    18    1
    16    18    19    1
    17    19    20   ar
    18    20    21   ar
    19    21    22   ar
    20    22    23   ar
    21    23    24   ar
    22    24    25    1
    23    25    26    1
    24    26    27    1
    25    27    28   ar
    26    28    29   ar
    27    29    30   ar
    28    30    31   ar
    29    31    32   ar
    30    16    10   ar
    31    32    18    1
    32    24    19   ar
    33    32    27   ar
    34     6     9    1
    35     3     4    1
@<TRIPOS>MOLECULE
*****
 32 35 0 0 0
SMALL
GASTEIGER

@<TRIPOS>ATOM
      1 O          61.1691   85.4936    7.4706 O.2     1  UNL1       -0.2733
      2 C          60.3218   86.2286    8.4665 C.2     1  UNL1        0.2426
      3 N          60.7800   86.3603    9.8887 N.am    1  UNL1       -0.3023
      4 H          60.2239   86.8427   10.5424 H       1  UNL1        0.1495
      5 C          59.0163   86.8320    8.0403 C.3     1  UNL1        0.1759
      6 N          58.9808   87.8265    6.9179 N.am    1  UNL1       -0.2931
      7 C          59.4090   89.2439    7.1578 C.2     1  UNL1        0.2462
      8 O          59.8728   89.6668    8.5201 O.2     1  UNL1       -0.2701
      9 H          58.6763   87.5489    6.0237 H       1  UNL1        0.1502
     10 C          59.3734   90.2384    6.0354 C.ar    1  UNL1        0.0535
     11 C          58.0677   90.8402    5.6079 C.ar    1  UNL1        0.0068
     12 C          58.0321   91.8347    4.4855 C.ar    1  UNL1        0.0298
     13 C          59.3022   92.2273    3.7906 C.ar    1  UNL1        0.1401
     14 F          59.2667   93.2218    2.6682 F       1  UNL1       -0.2042
     15 C          60.6079   91.6254    4.2183 C.ar    1  UNL1        0.0298
     16 C          60.6436   90.6309    5.3407 C.ar    1  UNL1        0.0068
     17 C          62.0855   85.7569   10.3151 C.3     1  UNL1        0.0981
     18 C          62.7253   86.1862   11.6021 C.3     1  UNL1        0.0635
     19 C          62.9397   87.6622   11.7617 C.ar    1  UNL1       -0.0207
     20 C          62.4531   88.4196   10.5620 C.ar    1  UNL1       -0.0042
     21 C          62.5746   89.9140   10.5184 C.ar    1  UNL1       -0.0003
     22 C          63.1828   90.6510   11.6747 C.ar    1  UNL1       -0.0003
     23 C          63.6694   89.8936   12.8745 C.ar    1  UNL1       -0.0046
     24 C          63.5479   88.3992   12.9180 C.ar    1  UNL1       -0.0254
     25 C          64.0919   87.8422   14.2001 C.3     1  UNL1        0.0307
     26 C          64.1621   86.4107   14.6427 C.3     1  UNL1        0.0307
     27 C          63.7056   85.1826   13.9124 C.ar    1  UNL1       -0.0254
     28 C          63.9612   83.9412   14.7146 C.ar    1  UNL1       -0.0046
     29 C          63.5774   82.5998   14.1636 C.ar    1  UNL1       -0.0003
     30 C          62.9380   82.4999   12.8105 C.ar    1  UNL1       -0.0003
     31 C          62.6824   83.7413   12.0082 C.ar    1  UNL1       -0.0042
     32 C          63.0661   85.0826   12.5592 C.ar    1  UNL1       -0.0207
@<TRIPOS>BOND
     1     1     2    2
     2     2     5    1
     3     5     6    1
     4     6     7   am
     5     7     8    2
     6     7    10    1
     7    10    11   ar
     8    11    12   ar
     9    12    13   ar
    10    13    14    1
    11    13    15   ar
    12    15    16   ar
    13     2     3   am
    14     3    17    1
    15    17    18    1
    16    18    19    1
    17    19    20   ar
    18    20    21   ar
    19    21    22   ar
    20    22    23   ar
    21    23    24   ar
    22    24    25    1
    23    25    26    1
    24    26    27    1
    25    27    28   ar
    26    28    29   ar
    27    29    30   ar
    28    30    31   ar
    29    31    32   ar
    30    16    10   ar
    31    32    18    1
    32    24    19   ar
    33    32    27   ar
    34     6     9    1
    35     3     4    1
@<TRIPOS>MOLECULE
*****
 32 35 0 0 0
SMALL
GASTEIGER

@<TRIPOS>ATOM
      1 O          63.8794   91.6179   15.6706 O.2     1  UNL1       -0.2733
      2 C          65.0218   91.2229   14.7824 C.2     1  UNL1        0.2426
      3 N          65.0637   89.8496   14.1805 N.am    1  UNL1       -0.3023
      4 H          65.8135   89.5903   13.5976 H       1  UNL1        0.1495
      5 C          66.1223   92.2011   14.4961 C.3     1  UNL1        0.1759
      6 N          66.0035   93.1453   13.3366 N.am    1  UNL1       -0.2931
      7 C          66.9632   93.0470   12.1879 C.2     1  UNL1        0.2462
      8 O          68.0416   92.0046   12.1988 O.2     1  UNL1       -0.2701
      9 H          65.2956   93.8295   13.3294 H       1  UNL1        0.1502
     10 C          66.8443   93.9912   11.0284 C.ar    1  UNL1        0.0535
     11 C          67.4620   93.6385    9.7078 C.ar    1  UNL1        0.0068
     12 C          67.3432   94.5827    8.5483 C.ar    1  UNL1        0.0298
     13 C          66.6067   95.8796    8.7094 C.ar    1  UNL1        0.1401
     14 F          66.4879   96.8238    7.5499 F       1  UNL1       -0.2042
     15 C          65.9891   96.2321   10.0301 C.ar    1  UNL1        0.0298
     16 C          66.1079   95.2880   11.1896 C.ar    1  UNL1        0.0068
     17 C          63.9633   88.8713   14.4669 C.3     1  UNL1        0.0981
     18 C          63.5151   87.9139   13.4026 C.3     1  UNL1        0.0635
     19 C          62.9265   88.5378   12.1720 C.ar    1  UNL1       -0.0207
     20 C          62.9106   90.0344   12.2704 C.ar    1  UNL1       -0.0042
     21 C          62.3605   90.8544   11.1412 C.ar    1  UNL1       -0.0003
     22 C          61.8262   90.1777    9.9138 C.ar    1  UNL1       -0.0003
     23 C          61.8421   88.6810    9.8155 C.ar    1  UNL1       -0.0046
     24 C          62.3923   87.8611   10.9446 C.ar    1  UNL1       -0.0254
     25 C          62.3147   86.3934   10.6446 C.3     1  UNL1        0.0307
     26 C          62.7522   85.2399   11.4979 C.3     1  UNL1        0.0307
     27 C          63.3753   85.2693   12.8621 C.ar    1  UNL1       -0.0254
     28 C          63.6613   83.8850   13.3638 C.ar    1  UNL1       -0.0046
     29 C          64.2868   83.6906   14.7133 C.ar    1  UNL1       -0.0003
     30 C          64.6264   84.8806   15.5609 C.ar    1  UNL1       -0.0003
     31 C          64.3404   86.2650   15.0592 C.ar    1  UNL1       -0.0042
     32 C          63.7149   86.4593   13.7098 C.ar    1  UNL1       -0.0207
@<TRIPOS>BOND
     1     1     2    2
     2     2     5    1
     3     5     6    1
     4     6     7   am
     5     7     8    2
     6     7    10    1
     7    10    11   ar
     8    11    12   ar
     9    12    13   ar
    10    13    14    1
    11    13    15   ar
    12    15    16   ar
    13     2     3   am
    14     3    17    1
    15    17    18    1
    16    18    19    1
    17    19    20   ar
    18    20    21   ar
    19    21    22   ar
    20    22    23   ar
    21    23    24   ar
    22    24    25    1
    23    25    26    1
    24    26    27    1
    25    27    28   ar
    26    28    29   ar
    27    29    30   ar
    28    30    31   ar
    29    31    32   ar
    30    16    10   ar
    31    32    18    1
    32    24    19   ar
    33    32    27   ar
    34     6     9    1
    35     3     4    1
@<TRIPOS>MOLECULE
*****
 32 35 0 0 0
SMALL
GASTEIGER

@<TRIPOS>ATOM
      1 O          63.8757   91.6100   15.6733 O.2     1  UNL1       -0.2733
      2 C          65.0237   91.2142   14.7927 C.2     1  UNL1        0.2426
      3 N          65.0709   89.8394   14.1946 N.am    1  UNL1       -0.3023
      4 H          65.8244   89.5796   13.6166 H       1  UNL1        0.1495
      5 C          66.1245   92.1932   14.5101 C.3     1  UNL1        0.1759
      6 N          66.0036   93.1455   13.3574 N.am    1  UNL1       -0.2931
      7 C          66.9530   93.0468   12.2003 C.2     1  UNL1        0.2462
      8 O          68.0232   91.9959   12.1957 O.2     1  UNL1       -0.2701
      9 H          65.3012   93.8352   13.3604 H       1  UNL1        0.1502
     10 C          66.8321   93.9991   11.0476 C.ar    1  UNL1        0.0535
     11 C          67.4206   93.6420    9.7149 C.ar    1  UNL1        0.0068
     12 C          67.2997   94.5943    8.5623 C.ar    1  UNL1        0.0298
     13 C          66.5903   95.9037    8.7424 C.ar    1  UNL1        0.1401
     14 F          66.4693   96.8560    7.5898 F       1  UNL1       -0.2042
     15 C          66.0018   96.2607   10.0751 C.ar    1  UNL1        0.0298
     16 C          66.1227   95.3084   11.2278 C.ar    1  UNL1        0.0068
     17 C          63.9701   88.8603   14.4772 C.3     1  UNL1        0.0981
     18 C          63.5210   87.9079   13.4089 C.3     1  UNL1        0.0635
     19 C          63.7215   86.4519   13.7090 C.ar    1  UNL1       -0.0207
     20 C          64.3487   86.2514   15.0567 C.ar    1  UNL1       -0.0042
     21 C          64.6356   84.8648   15.5515 C.ar    1  UNL1       -0.0003
     22 C          64.2953   83.6787   14.6986 C.ar    1  UNL1       -0.0003
     23 C          63.6682   83.8792   13.3509 C.ar    1  UNL1       -0.0046
     24 C          63.3812   85.2659   12.8561 C.ar    1  UNL1       -0.0254
     25 C          62.7565   85.2429   11.4925 C.3     1  UNL1        0.0307
     26 C          62.3176   86.4001   10.6451 C.3     1  UNL1        0.0307
     27 C          62.3952   87.8664   10.9520 C.ar    1  UNL1       -0.0254
     28 C          61.8435   88.6915    9.8274 C.ar    1  UNL1       -0.0046
     29 C          61.8273   90.1878    9.9329 C.ar    1  UNL1       -0.0003
     30 C          62.3628   90.8588   11.1628 C.ar    1  UNL1       -0.0003
     31 C          62.9145   90.0336   12.2874 C.ar    1  UNL1       -0.0042
     32 C          62.9307   88.5375   12.1820 C.ar    1  UNL1       -0.0207
@<TRIPOS>BOND
     1     1     2    2
     2     2     5    1
     3     5     6    1
     4     6     7   am
     5     7     8    2
     6     7    10    1
     7    10    11   ar
     8    11    12   ar
     9    12    13   ar
    10    13    14    1
    11    13    15   ar
    12    15    16   ar
    13     2     3   am
    14     3    17    1
    15    17    18    1
    16    18    19    1
    17    19    20   ar
    18    20    21   ar
    19    21    22   ar
    20    22    23   ar
    21    23    24   ar
    22    24    25    1
    23    25    26    1
    24    26    27    1
    25    27    28   ar
    26    28    29   ar
    27    29    30   ar
    28    30    31   ar
    29    31    32   ar
    30    16    10   ar
    31    32    18    1
    32    24    19   ar
    33    32    27   ar
    34     6     9    1
    35     3     4    1
@<TRIPOS>MOLECULE
*****
 32 35 0 0 0
SMALL
GASTEIGER

@<TRIPOS>ATOM
      1 O          62.3183   89.7441   14.8853 O.2     1  UNL1       -0.2733
      2 C          63.5454   89.6907   14.0243 C.2     1  UNL1        0.2426
      3 N          63.7149   88.5821   13.0282 N.am    1  UNL1       -0.3023
      4 H          64.5203   88.5470   12.4630 H       1  UNL1        0.1495
      5 C          64.6029   90.7459   14.1592 C.3     1  UNL1        0.1759
      6 N          64.9568   91.6077   12.9836 N.am    1  UNL1       -0.2931
      7 C          66.3637   92.0979   12.8096 C.2     1  UNL1        0.2462
      8 O          67.4167   91.7264   13.8111 O.2     1  UNL1       -0.2701
      9 H          64.2657   91.8515   12.3262 H       1  UNL1        0.1502
     10 C          66.7176   92.9597   11.6339 C.ar    1  UNL1        0.0535
     11 C          67.5154   92.3892   10.4990 C.ar    1  UNL1        0.0068
     12 C          67.8693   93.2510    9.3234 C.ar    1  UNL1        0.0298
     13 C          67.4254   94.6833    9.2827 C.ar    1  UNL1        0.1401
     14 F          67.7793   95.5451    8.1071 F       1  UNL1       -0.2042
     15 C          66.6277   95.2537   10.4176 C.ar    1  UNL1        0.0298
     16 C          66.2737   94.3920   11.5933 C.ar    1  UNL1        0.0068
     17 C          62.6574   87.5269   12.8931 C.3     1  UNL1        0.0981
     18 C          62.4615   86.8248   11.5821 C.3     1  UNL1        0.0635
     19 C          63.0757   85.4604   11.4764 C.ar    1  UNL1       -0.0207
     20 C          63.7778   85.0757   12.7448 C.ar    1  UNL1       -0.0042
     21 C          64.4616   83.7447   12.8495 C.ar    1  UNL1       -0.0003
     22 C          64.4433   82.7985   11.6857 C.ar    1  UNL1       -0.0003
     23 C          63.7412   83.1833   10.4173 C.ar    1  UNL1       -0.0046
     24 C          63.0574   84.5142   10.3126 C.ar    1  UNL1       -0.0254
     25 C          62.4203   84.6988    8.9672 C.3     1  UNL1        0.0307
     26 C          61.6443   85.8750    8.4532 C.3     1  UNL1        0.0307
     27 C          61.3136   87.1573    9.1578 C.ar    1  UNL1       -0.0254
     28 C          60.5144   88.0744    8.2802 C.ar    1  UNL1       -0.0046
     29 C          60.0787   89.4142    8.7952 C.ar    1  UNL1       -0.0003
     30 C          60.4424   89.8369   10.1876 C.ar    1  UNL1       -0.0003
     31 C          61.2417   88.9198   11.0652 C.ar    1  UNL1       -0.0042
     32 C          61.6773   87.5801   10.5503 C.ar    1  UNL1       -0.0207
@<TRIPOS>BOND
     1     1     2    2
     2     2     5    1
     3     5     6    1
     4     6     7   am
     5     7     8    2
     6     7    10    1
     7    10    11   ar
     8    11    12   ar
     9    12    13   ar
    10    13    14    1
    11    13    15   ar
    12    15    16   ar
    13     2     3   am
    14     3    17    1
    15    17    18    1
    16    18    19    1
    17    19    20   ar
    18    20    21   ar
    19    21    22   ar
    20    22    23   ar
    21    23    24   ar
    22    24    25    1
    23    25    26    1
    24    26    27    1
    25    27    28   ar
    26    28    29   ar
    27    29    30   ar
    28    30    31   ar
    29    31    32   ar
    30    16    10   ar
    31    32    18    1
    32    24    19   ar
    33    32    27   ar
    34     6     9    1
    35     3     4    1
@<TRIPOS>MOLECULE
*****
 32 35 0 0 0
SMALL
GASTEIGER

@<TRIPOS>ATOM
      1 O          62.3621   89.7498   14.9256 O.2     1  UNL1       -0.2733
      2 C          63.6143   89.6819   14.1025 C.2     1  UNL1        0.2426
      3 N          63.8232   88.5442   13.1474 N.am    1  UNL1       -0.3023
      4 H          64.6451   88.4996   12.6072 H       1  UNL1        0.1495
      5 C          64.6576   90.7515   14.2344 C.3     1  UNL1        0.1759
      6 N          64.9843   91.6290   13.0625 N.am    1  UNL1       -0.2931
      7 C          66.3940   92.0921   12.8423 C.2     1  UNL1        0.2462
      8 O          67.4768   91.6777   13.7938 O.2     1  UNL1       -0.2701
      9 H          64.2736   91.9010   12.4379 H       1  UNL1        0.1502
     10 C          66.7207   92.9696   11.6704 C.ar    1  UNL1        0.0535
     11 C          67.5187   92.4232   10.5238 C.ar    1  UNL1        0.0068
     12 C          67.8454   93.3007    9.3520 C.ar    1  UNL1        0.0298
     13 C          67.3741   94.7246    9.3266 C.ar    1  UNL1        0.1401
     14 F          67.7009   95.6020    8.1547 F       1  UNL1       -0.2042
     15 C          66.5761   95.2708   10.4732 C.ar    1  UNL1        0.0298
     16 C          66.2494   94.3934   11.6451 C.ar    1  UNL1        0.0068
     17 C          62.7800   87.4745   13.0154 C.3     1  UNL1        0.0981
     18 C          62.5533   86.8072   11.6913 C.3     1  UNL1        0.0635
     19 C          61.7795   87.6054   10.6843 C.ar    1  UNL1       -0.0207
     20 C          61.3841   88.9443   11.2330 C.ar    1  UNL1       -0.0042
     21 C          60.6009   89.9012   10.3840 C.ar    1  UNL1       -0.0003
     22 C          60.2131   89.5193    8.9863 C.ar    1  UNL1       -0.0003
     23 C          60.6085   88.1804    8.4375 C.ar    1  UNL1       -0.0046
     24 C          61.3917   87.2235    9.2865 C.ar    1  UNL1       -0.0254
     25 C          61.6819   85.9491    8.5506 C.3     1  UNL1        0.0307
     26 C          62.4316   84.7418    9.0306 C.3     1  UNL1        0.0307
     27 C          63.0762   84.5108   10.3652 C.ar    1  UNL1       -0.0254
     28 C          63.7258   83.1605   10.4336 C.ar    1  UNL1       -0.0046
     29 C          64.4296   82.7293   11.6862 C.ar    1  UNL1       -0.0003
     30 C          64.4838   83.6485   12.8703 C.ar    1  UNL1       -0.0003
     31 C          63.8342   84.9988   12.8018 C.ar    1  UNL1       -0.0042
     32 C          63.1304   85.4300   11.5494 C.ar    1  UNL1       -0.0207
@<TRIPOS>BOND
     1     1     2    2
     2     2     5    1
     3     5     6    1
     4     6     7   am
     5     7     8    2
     6     7    10    1
     7    10    11   ar
     8    11    12   ar
     9    12    13   ar
    10    13    14    1
    11    13    15   ar
    12    15    16   ar
    13     2     3   am
    14     3    17    1
    15    17    18    1
    16    18    19    1
    17    19    20   ar
    18    20    21   ar
    19    21    22   ar
    20    22    23   ar
    21    23    24   ar
    22    24    25    1
    23    25    26    1
    24    26    27    1
    25    27    28   ar
    26    28    29   ar
    27    29    30   ar
    28    30    31   ar
    29    31    32   ar
    30    16    10   ar
    31    32    18    1
    32    24    19   ar
    33    32    27   ar
    34     6     9    1
    35     3     4    1
