@<TRIPOS>MOLECULE
*****
 32 35 0 0 0
SMALL
GASTEIGER

@<TRIPOS>ATOM
      1 C          63.4402   91.9320   16.4077 C.3     1  UNL1        0.0311
      2 C          64.3622   90.9970   15.6825 C.3     1  UNL1        0.1470
      3 C          63.9429   89.5801   15.4249 C.2     1  UNL1        0.2450
      4 O          62.7687   89.0005   16.1566 O.2     1  UNL1       -0.2730
      5 N          64.6977   88.7426   14.4354 N.am    1  UNL1       -0.2680
      6 H          65.4684   89.1230   13.9551 H       1  UNL1        0.1563
      7 C          64.2784   87.3257   14.1777 C.ar    1  UNL1        0.1342
      8 C          64.7336   86.2301   15.0957 C.ar    1  UNL1        0.0345
      9 C          64.3142   84.8131   14.8380 C.ar    1  UNL1        0.0045
     10 C          63.4397   84.4918   13.6623 C.ar    1  UNL1        0.0208
     11 C          62.9846   85.5874   12.7445 C.ar    1  UNL1        0.1003
     12 N          63.4040   87.0043   13.0021 N.ar    1  UNL1       -0.2290
     13 C          63.0204   83.0748   13.4046 C.ar    1  UNL1        0.0207
     14 C          62.1591   82.3548   14.3996 C.ar    1  UNL1        0.0032
     15 C          61.7398   80.9379   14.1419 C.ar    1  UNL1        0.0207
     16 C          62.1817   80.2409   12.8893 C.ar    1  UNL1        0.0989
     17 N          63.0429   80.9610   11.8944 N.ar    1  UNL1       -0.2423
     18 C          63.4622   82.3779   12.1521 C.ar    1  UNL1        0.0989
     19 N          65.7035   91.4790   15.2151 N.pl3   1  UNL1       -0.3257
     20 H          66.5185   91.2117   15.6985 H       1  UNL1        0.1472
     21 C          65.8031   92.3683   14.0112 C.ar    1  UNL1        0.0644
     22 C          65.2008   91.9358   12.7074 C.ar    1  UNL1        0.0175
     23 C          65.3005   92.8251   11.5036 C.ar    1  UNL1        0.0219
     24 C          66.0025   94.1469   11.6036 C.ar    1  UNL1        0.0987
     25 N          66.6048   94.5794   12.9075 N.ar    1  UNL1       -0.2410
     26 C          66.5051   93.6901   14.1113 C.ar    1  UNL1        0.1131
     27 C          66.1021   95.0362   10.3997 C.ar    1  UNL1        0.0971
     28 C          65.3123   96.2889   10.1612 C.ar    1  UNL1        0.0427
     29 C          65.7311   96.8559    8.8371 C.ar    1  UNL1        0.1217
     30 N          66.7798   95.9535    8.2573 N.ar    1  UNL1       -0.1676
     31 N          67.0091   94.8289    9.2231 N.ar    1  UNL1       -0.2473
     32 C          67.9756   93.6960    9.0437 C.3     1  UNL1        0.1538
@<TRIPOS>BOND
     1     2     1    1
     2     2    19    1
     3    19    21    1
     4    21    22   ar
     5    22    23   ar
     6    23    24   ar
     7    24    27    1
     8    27    28   ar
     9    28    29   ar
    10    29    30   ar
    11    30    31   ar
    12    31    32    1
    13    24    25   ar
    14    25    26   ar
    15     2     3    1
    16     3     4    2
    17     3     5   am
    18     5     7    1
    19     7     8   ar
    20     8     9   ar
    21     9    10   ar
    22    10    13    1
    23    13    14   ar
    24    14    15   ar
    25    15    16   ar
    26    16    17   ar
    27    17    18   ar
    28    10    11   ar
    29    11    12   ar
    30    26    21   ar
    31    12     7   ar
    32    31    27   ar
    33    18    13   ar
    34    19    20    1
    35     5     6    1
@<TRIPOS>MOLECULE
*****
 32 35 0 0 0
SMALL
GASTEIGER

@<TRIPOS>ATOM
      1 C          63.3871   90.7515   16.5576 C.3     1  UNL1        0.0311
      2 C          64.2975   90.6809   15.3675 C.3     1  UNL1        0.1470
      3 C          63.9913   89.7354   14.2440 C.2     1  UNL1        0.2450
      4 O          64.6637   88.3958   14.1868 O.2     1  UNL1       -0.2730
      5 N          63.0126   90.1295   13.1777 N.am    1  UNL1       -0.2680
      6 H          62.5713   91.0087   13.2153 H       1  UNL1        0.1563
      7 C          62.7064   89.1840   12.0542 C.ar    1  UNL1        0.1342
      8 C          62.3915   89.7188   10.6886 C.ar    1  UNL1        0.0345
      9 C          62.0853   88.7733    9.5651 C.ar    1  UNL1        0.0045
     10 C          62.0940   87.2929    9.8073 C.ar    1  UNL1        0.0208
     11 C          62.4089   86.7582   11.1729 C.ar    1  UNL1        0.1003
     12 N          62.7151   87.7037   12.2963 N.ar    1  UNL1       -0.2290
     13 C          61.7877   86.3474    8.6838 C.ar    1  UNL1        0.0207
     14 C          62.8753   85.4897    8.1079 C.ar    1  UNL1        0.0032
     15 C          62.5691   84.5442    6.9844 C.ar    1  UNL1        0.0207
     16 C          61.1753   84.4563    6.4369 C.ar    1  UNL1        0.0989
     17 N          60.0878   85.3140    7.0128 N.ar    1  UNL1       -0.2423
     18 C          60.3940   86.2595    8.1363 C.ar    1  UNL1        0.0989
     19 N          65.5141   91.5559   15.3009 N.pl3   1  UNL1       -0.3257
     20 H          66.1572   91.5623   16.0463 H       1  UNL1        0.1472
     21 C          65.7508   92.4211   14.0986 C.ar    1  UNL1        0.0644
     22 C          65.2198   92.0050   12.7589 C.ar    1  UNL1        0.0175
     23 C          65.4565   92.8702   11.5567 C.ar    1  UNL1        0.0219
     24 C          66.2242   94.1515   11.6942 C.ar    1  UNL1        0.0987
     25 N          66.7552   94.5676   13.0339 N.ar    1  UNL1       -0.2410
     26 C          66.5185   93.7024   14.2361 C.ar    1  UNL1        0.1131
     27 C          66.4609   95.0167   10.4919 C.ar    1  UNL1        0.0971
     28 C          65.8102   96.3397   10.2159 C.ar    1  UNL1        0.0427
     29 C          66.3369   96.8515    8.9080 C.ar    1  UNL1        0.1217
     30 N          67.3133   95.8448    8.3757 N.ar    1  UNL1       -0.1676
     31 N          67.3899   94.7109    9.3547 N.ar    1  UNL1       -0.2473
     32 C          68.2453   93.4861    9.2199 C.3     1  UNL1        0.1538
@<TRIPOS>BOND
     1     2     1    1
     2     2    19    1
     3    19    21    1
     4    21    22   ar
     5    22    23   ar
     6    23    24   ar
     7    24    27    1
     8    27    28   ar
     9    28    29   ar
    10    29    30   ar
    11    30    31   ar
    12    31    32    1
    13    24    25   ar
    14    25    26   ar
    15     2     3    1
    16     3     4    2
    17     3     5   am
    18     5     7    1
    19     7     8   ar
    20     8     9   ar
    21     9    10   ar
    22    10    13    1
    23    13    14   ar
    24    14    15   ar
    25    15    16   ar
    26    16    17   ar
    27    17    18   ar
    28    10    11   ar
    29    11    12   ar
    30    26    21   ar
    31    12     7   ar
    32    31    27   ar
    33    18    13   ar
    34    19    20    1
    35     5     6    1
@<TRIPOS>MOLECULE
*****
 32 35 0 0 0
SMALL
GASTEIGER

@<TRIPOS>ATOM
      1 C          62.2570   88.0677   17.0824 C.3     1  UNL1        0.0311
      2 C          63.3956   87.5895   16.2308 C.3     1  UNL1        0.1470
      3 C          63.9407   88.4689   15.1448 C.2     1  UNL1        0.2450
      4 O          64.0552   87.9465   13.7434 O.2     1  UNL1       -0.2730
      5 N          64.3712   89.8708   15.4601 N.am    1  UNL1       -0.2680
      6 H          64.2960   90.2137   16.3799 H       1  UNL1        0.1563
      7 C          64.9163   90.7502   14.3741 C.ar    1  UNL1        0.1342
      8 C          66.2962   91.3256   14.4966 C.ar    1  UNL1        0.0345
      9 C          66.8412   92.2050   13.4106 C.ar    1  UNL1        0.0045
     10 C          66.0064   92.5091   12.2020 C.ar    1  UNL1        0.0208
     11 C          64.6266   91.9337   12.0795 C.ar    1  UNL1        0.1003
     12 N          64.0815   91.0543   13.1655 N.ar    1  UNL1       -0.2290
     13 C          66.5515   93.3885   11.1159 C.ar    1  UNL1        0.0207
     14 C          67.4044   92.7998   10.0314 C.ar    1  UNL1        0.0032
     15 C          67.9494   93.6792    8.9453 C.ar    1  UNL1        0.0207
     16 C          67.6416   95.1473    8.9438 C.ar    1  UNL1        0.0989
     17 N          66.7888   95.7359   10.0282 N.ar    1  UNL1       -0.2423
     18 C          66.2437   94.8565   11.1143 C.ar    1  UNL1        0.0989
     19 N          63.9890   86.2320   16.4653 N.pl3   1  UNL1       -0.3257
     20 H          64.5041   86.0550   17.2855 H       1  UNL1        0.1472
     21 C          63.7977   85.1443   15.4503 C.ar    1  UNL1        0.0644
     22 C          64.9021   84.8102   14.4918 C.ar    1  UNL1        0.0175
     23 C          64.7107   83.7225   13.4768 C.ar    1  UNL1        0.0219
     24 C          63.4150   82.9689   13.4203 C.ar    1  UNL1        0.0987
     25 N          62.3106   83.3030   14.3788 N.ar    1  UNL1       -0.2410
     26 C          62.5020   84.3907   15.3938 C.ar    1  UNL1        0.1131
     27 C          63.2236   81.8811   12.4053 C.ar    1  UNL1        0.0971
     28 C          62.7549   80.4844   12.6874 C.ar    1  UNL1        0.0427
     29 C          62.7090   79.7392   11.3865 C.ar    1  UNL1        0.1217
     30 N          63.1494   80.6753   10.3003 N.ar    1  UNL1       -0.1676
     31 N          63.4675   81.9991   10.9299 N.ar    1  UNL1       -0.2473
     32 C          63.9454   83.2254   10.2105 C.3     1  UNL1        0.1538
@<TRIPOS>BOND
     1     2     1    1
     2     2    19    1
     3    19    21    1
     4    21    22   ar
     5    22    23   ar
     6    23    24   ar
     7    24    27    1
     8    27    28   ar
     9    28    29   ar
    10    29    30   ar
    11    30    31   ar
    12    31    32    1
    13    24    25   ar
    14    25    26   ar
    15     2     3    1
    16     3     4    2
    17     3     5   am
    18     5     7    1
    19     7     8   ar
    20     8     9   ar
    21     9    10   ar
    22    10    13    1
    23    13    14   ar
    24    14    15   ar
    25    15    16   ar
    26    16    17   ar
    27    17    18   ar
    28    10    11   ar
    29    11    12   ar
    30    26    21   ar
    31    12     7   ar
    32    31    27   ar
    33    18    13   ar
    34    19    20    1
    35     5     6    1
@<TRIPOS>MOLECULE
*****
 32 35 0 0 0
SMALL
GASTEIGER

@<TRIPOS>ATOM
      1 C          59.7555   90.9454   10.8534 C.3     1  UNL1        0.0311
      2 C          61.0514   90.2033   10.7114 C.3     1  UNL1        0.1470
      3 C          61.1378   88.7610   11.1143 C.2     1  UNL1        0.2450
      4 O          59.9506   88.0820   11.7303 O.2     1  UNL1       -0.2730
      5 N          62.4113   87.9977   10.9010 N.am    1  UNL1       -0.2680
      6 H          63.1905   88.4433   10.4967 H       1  UNL1        0.1563
      7 C          62.4977   86.5554   11.3039 C.ar    1  UNL1        0.1342
      8 C          62.2498   85.4775   10.2905 C.ar    1  UNL1        0.0345
      9 C          62.3361   84.0352   10.6933 C.ar    1  UNL1        0.0045
     10 C          62.6703   83.6707   12.1095 C.ar    1  UNL1        0.0208
     11 C          62.9182   84.7486   13.1228 C.ar    1  UNL1        0.1003
     12 N          62.8318   86.1909   12.7200 N.ar    1  UNL1       -0.2290
     13 C          62.7566   82.2284   12.5124 C.ar    1  UNL1        0.0207
     14 C          62.6526   81.1519   11.4729 C.ar    1  UNL1        0.0032
     15 C          62.7390   79.7096   11.8758 C.ar    1  UNL1        0.0207
     16 C          62.9293   79.3438   13.3180 C.ar    1  UNL1        0.0989
     17 N          63.0332   80.4203   14.3574 N.ar    1  UNL1       -0.2423
     18 C          62.9469   81.8626   13.9545 C.ar    1  UNL1        0.0989
     19 N          62.2609   90.9036   10.1667 N.pl3   1  UNL1       -0.3257
     20 H          62.3262   91.0959    9.2034 H       1  UNL1        0.1472
     21 C          63.3711   91.3108   11.0897 C.ar    1  UNL1        0.0644
     22 C          64.5543   92.0613   10.5544 C.ar    1  UNL1        0.0175
     23 C          65.6643   92.4685   11.4774 C.ar    1  UNL1        0.0219
     24 C          65.5912   92.1251   12.9357 C.ar    1  UNL1        0.0987
     25 N          64.4080   91.3745   13.4710 N.ar    1  UNL1       -0.2410
     26 C          63.2979   90.9673   12.5480 C.ar    1  UNL1        0.1131
     27 C          66.7013   92.5322   13.8587 C.ar    1  UNL1        0.0971
     28 C          66.5435   93.2648   15.1582 C.ar    1  UNL1        0.0427
     29 C          67.9088   93.4637   15.7469 C.ar    1  UNL1        0.1217
     30 N          68.9103   92.8540   14.8112 N.ar    1  UNL1       -0.1676
     31 N          68.1640   92.2784   13.6443 N.ar    1  UNL1       -0.2473
     32 C          68.7735   91.5728   12.4693 C.3     1  UNL1        0.1538
@<TRIPOS>BOND
     1     2     1    1
     2     2    19    1
     3    19    21    1
     4    21    22   ar
     5    22    23   ar
     6    23    24   ar
     7    24    27    1
     8    27    28   ar
     9    28    29   ar
    10    29    30   ar
    11    30    31   ar
    12    31    32    1
    13    24    25   ar
    14    25    26   ar
    15     2     3    1
    16     3     4    2
    17     3     5   am
    18     5     7    1
    19     7     8   ar
    20     8     9   ar
    21     9    10   ar
    22    10    13    1
    23    13    14   ar
    24    14    15   ar
    25    15    16   ar
    26    16    17   ar
    27    17    18   ar
    28    10    11   ar
    29    11    12   ar
    30    26    21   ar
    31    12     7   ar
    32    31    27   ar
    33    18    13   ar
    34    19    20    1
    35     5     6    1
@<TRIPOS>MOLECULE
*****
 32 35 0 0 0
SMALL
GASTEIGER

@<TRIPOS>ATOM
      1 C          59.7264   89.6582    9.4850 C.3     1  UNL1        0.0311
      2 C          61.0884   89.0392    9.5939 C.3     1  UNL1        0.1470
      3 C          62.1848   89.7619   10.3191 C.2     1  UNL1        0.2450
      4 O          62.9911   90.8083    9.6086 O.2     1  UNL1       -0.2730
      5 N          62.4748   89.4380   11.7548 N.am    1  UNL1       -0.2680
      6 H          61.9455   88.7512   12.2211 H       1  UNL1        0.1563
      7 C          63.5711   90.1607   12.4799 C.ar    1  UNL1        0.1342
      8 C          64.1027   89.6145   13.7719 C.ar    1  UNL1        0.0345
      9 C          65.1991   90.3371   14.4970 C.ar    1  UNL1        0.0045
     10 C          65.7638   91.6060   13.9302 C.ar    1  UNL1        0.0208
     11 C          65.2321   92.1521   12.6383 C.ar    1  UNL1        0.1003
     12 N          64.1358   91.4295   11.9132 N.ar    1  UNL1       -0.2290
     13 C          66.8601   92.3286   14.6553 C.ar    1  UNL1        0.0207
     14 C          67.7898   91.5709   15.5563 C.ar    1  UNL1        0.0032
     15 C          68.8861   92.2935   16.2815 C.ar    1  UNL1        0.0207
     16 C          69.0528   93.7739   16.1056 C.ar    1  UNL1        0.0989
     17 N          68.1231   94.5315   15.2047 N.ar    1  UNL1       -0.2423
     18 C          67.0268   93.8089   14.4796 C.ar    1  UNL1        0.0989
     19 N          61.3541   87.6978    8.9777 N.pl3   1  UNL1       -0.3257
     20 H          61.2508   87.5730    8.0066 H       1  UNL1        0.1472
     21 C          61.7772   86.5463    9.8410 C.ar    1  UNL1        0.0644
     22 C          62.6780   85.4836    9.2853 C.ar    1  UNL1        0.0175
     23 C          63.1011   84.3322   10.1486 C.ar    1  UNL1        0.0219
     24 C          62.6233   84.2437   11.5677 C.ar    1  UNL1        0.0987
     25 N          61.7225   85.3064   12.1235 N.ar    1  UNL1       -0.2410
     26 C          61.2994   86.4578   11.2602 C.ar    1  UNL1        0.1131
     27 C          63.0464   83.0922   12.4310 C.ar    1  UNL1        0.0971
     28 C          62.6335   81.6608   12.2563 C.ar    1  UNL1        0.0427
     29 C          63.2886   80.8540   13.3379 C.ar    1  UNL1        0.1217
     30 N          64.1064   81.7868   14.1811 N.ar    1  UNL1       -0.1676
     31 N          63.9568   83.1701   13.6207 N.ar    1  UNL1       -0.2473
     32 C          64.6038   84.4130   14.1559 C.3     1  UNL1        0.1538
@<TRIPOS>BOND
     1     2     1    1
     2     2    19    1
     3    19    21    1
     4    21    22   ar
     5    22    23   ar
     6    23    24   ar
     7    24    27    1
     8    27    28   ar
     9    28    29   ar
    10    29    30   ar
    11    30    31   ar
    12    31    32    1
    13    24    25   ar
    14    25    26   ar
    15     2     3    1
    16     3     4    2
    17     3     5   am
    18     5     7    1
    19     7     8   ar
    20     8     9   ar
    21     9    10   ar
    22    10    13    1
    23    13    14   ar
    24    14    15   ar
    25    15    16   ar
    26    16    17   ar
    27    17    18   ar
    28    10    11   ar
    29    11    12   ar
    30    26    21   ar
    31    12     7   ar
    32    31    27   ar
    33    18    13   ar
    34    19    20    1
    35     5     6    1
@<TRIPOS>MOLECULE
*****
 32 35 0 0 0
SMALL
GASTEIGER

@<TRIPOS>ATOM
      1 C          59.7602   90.9568   10.6875 C.3     1  UNL1        0.0311
      2 C          61.0814   90.2465   10.6840 C.3     1  UNL1        0.1470
      3 C          61.1614   88.8094   11.1062 C.2     1  UNL1        0.2450
      4 O          59.9793   88.1510   11.7536 O.2     1  UNL1       -0.2730
      5 N          62.4236   88.0307   10.8811 N.am    1  UNL1       -0.2680
      6 H          63.1995   88.4628   10.4562 H       1  UNL1        0.1563
      7 C          62.5036   86.5935   11.3033 C.ar    1  UNL1        0.1342
      8 C          62.1759   85.5050   10.3246 C.ar    1  UNL1        0.0345
      9 C          62.2559   84.0678   10.7469 C.ar    1  UNL1        0.0045
     10 C          62.6635   83.7193   12.1477 C.ar    1  UNL1        0.0208
     11 C          62.9912   84.8078   13.1263 C.ar    1  UNL1        0.1003
     12 N          62.9112   86.2450   12.7041 N.ar    1  UNL1       -0.2290
     13 C          62.7435   82.2822   12.5699 C.ar    1  UNL1        0.0207
     14 C          62.7532   81.1960   11.5354 C.ar    1  UNL1        0.0032
     15 C          62.8332   79.7588   11.9576 C.ar    1  UNL1        0.0207
     16 C          62.9034   79.4079   13.4144 C.ar    1  UNL1        0.0989
     17 N          62.8937   80.4941   14.4488 N.ar    1  UNL1       -0.2423
     18 C          62.8137   81.9312   14.0266 C.ar    1  UNL1        0.0989
     19 N          62.3226   90.9734   10.2584 N.pl3   1  UNL1       -0.3257
     20 H          62.4356   91.2464    9.3193 H       1  UNL1        0.1472
     21 C          63.3917   91.2842   11.2637 C.ar    1  UNL1        0.0644
     22 C          64.6233   92.0297   10.8424 C.ar    1  UNL1        0.0175
     23 C          65.6923   92.3405   11.8477 C.ar    1  UNL1        0.0219
     24 C          65.5297   91.9060   13.2741 C.ar    1  UNL1        0.0987
     25 N          64.2981   91.1605   13.6953 N.ar    1  UNL1       -0.2410
     26 C          63.2291   90.8497   12.6901 C.ar    1  UNL1        0.1131
     27 C          66.5988   92.2168   14.2794 C.ar    1  UNL1        0.0971
     28 C          68.0655   92.3496   13.9941 C.ar    1  UNL1        0.0427
     29 C          68.7621   92.6643   15.2847 C.ar    1  UNL1        0.1217
     30 N          67.7259   92.7262   16.3676 N.ar    1  UNL1       -0.1676
     31 N          66.3890   92.4496   15.7462 N.ar    1  UNL1       -0.2473
     32 C          65.0732   92.4124   16.4655 C.3     1  UNL1        0.1538
@<TRIPOS>BOND
     1     2     1    1
     2     2    19    1
     3    19    21    1
     4    21    22   ar
     5    22    23   ar
     6    23    24   ar
     7    24    27    1
     8    27    28   ar
     9    28    29   ar
    10    29    30   ar
    11    30    31   ar
    12    31    32    1
    13    24    25   ar
    14    25    26   ar
    15     2     3    1
    16     3     4    2
    17     3     5   am
    18     5     7    1
    19     7     8   ar
    20     8     9   ar
    21     9    10   ar
    22    10    13    1
    23    13    14   ar
    24    14    15   ar
    25    15    16   ar
    26    16    17   ar
    27    17    18   ar
    28    10    11   ar
    29    11    12   ar
    30    26    21   ar
    31    12     7   ar
    32    31    27   ar
    33    18    13   ar
    34    19    20    1
    35     5     6    1
@<TRIPOS>MOLECULE
*****
 32 35 0 0 0
SMALL
GASTEIGER

@<TRIPOS>ATOM
      1 C          59.2830   89.8625    7.3069 C.3     1  UNL1        0.0311
      2 C          60.0060   89.0256    8.3203 C.3     1  UNL1        0.1470
      3 C          60.8172   89.6849    9.3961 C.2     1  UNL1        0.2450
      4 O          60.1690   90.6616   10.3319 O.2     1  UNL1       -0.2730
      5 N          62.2765   89.3673    9.5361 N.am    1  UNL1       -0.2680
      6 H          62.7019   88.7262    8.9219 H       1  UNL1        0.1563
      7 C          63.0877   90.0266   10.6120 C.ar    1  UNL1        0.1342
      8 C          63.8185   91.3044   10.3235 C.ar    1  UNL1        0.0345
      9 C          64.6297   91.9636   11.3994 C.ar    1  UNL1        0.0045
     10 C          64.7099   91.3451   12.7636 C.ar    1  UNL1        0.0208
     11 C          63.9791   90.0674   13.0519 C.ar    1  UNL1        0.1003
     12 N          63.1679   89.4081   11.9761 N.ar    1  UNL1       -0.2290
     13 C          65.5211   92.0044   13.8394 C.ar    1  UNL1        0.0207
     14 C          65.1917   91.7611   15.2825 C.ar    1  UNL1        0.0032
     15 C          66.0029   92.4204   16.3584 C.ar    1  UNL1        0.0207
     16 C          67.1434   93.3229   15.9911 C.ar    1  UNL1        0.0989
     17 N          67.4727   93.5661   14.5481 N.ar    1  UNL1       -0.2423
     18 C          66.6615   92.9068   13.4722 C.ar    1  UNL1        0.0989
     19 N          59.9178   87.5295    8.2579 N.pl3   1  UNL1       -0.3257
     20 H          59.3040   87.0988    7.6200 H       1  UNL1        0.1472
     21 C          60.7650   86.6896    9.1674 C.ar    1  UNL1        0.0644
     22 C          61.8539   85.8304    8.5966 C.ar    1  UNL1        0.0175
     23 C          62.7009   84.9906    9.5061 C.ar    1  UNL1        0.0219
     24 C          62.4590   85.0100   10.9863 C.ar    1  UNL1        0.0987
     25 N          61.3701   85.8693   11.5571 N.ar    1  UNL1       -0.2410
     26 C          60.5231   86.7091   10.6476 C.ar    1  UNL1        0.1131
     27 C          63.3061   84.1702   11.8958 C.ar    1  UNL1        0.0971
     28 C          63.6745   82.7323   11.6791 C.ar    1  UNL1        0.0427
     29 C          64.5296   82.2942   12.8310 C.ar    1  UNL1        0.1217
     30 N          64.6897   83.4613   13.7596 N.ar    1  UNL1       -0.1676
     31 N          63.9336   84.6207   13.1816 N.ar    1  UNL1       -0.2473
     32 C          63.8242   85.9901   13.7838 C.3     1  UNL1        0.1538
@<TRIPOS>BOND
     1     2     1    1
     2     2    19    1
     3    19    21    1
     4    21    22   ar
     5    22    23   ar
     6    23    24   ar
     7    24    27    1
     8    27    28   ar
     9    28    29   ar
    10    29    30   ar
    11    30    31   ar
    12    31    32    1
    13    24    25   ar
    14    25    26   ar
    15     2     3    1
    16     3     4    2
    17     3     5   am
    18     5     7    1
    19     7     8   ar
    20     8     9   ar
    21     9    10   ar
    22    10    13    1
    23    13    14   ar
    24    14    15   ar
    25    15    16   ar
    26    16    17   ar
    27    17    18   ar
    28    10    11   ar
    29    11    12   ar
    30    26    21   ar
    31    12     7   ar
    32    31    27   ar
    33    18    13   ar
    34    19    20    1
    35     5     6    1
@<TRIPOS>MOLECULE
*****
 32 35 0 0 0
SMALL
GASTEIGER

@<TRIPOS>ATOM
      1 C          59.5179   87.0635    7.5797 C.3     1  UNL1        0.0311
      2 C          59.3880   88.5420    7.7968 C.3     1  UNL1        0.1470
      3 C          60.1804   89.2136    8.8790 C.2     1  UNL1        0.2450
      4 O          59.6540   90.4568    9.5327 O.2     1  UNL1       -0.2730
      5 N          61.4995   88.6419    9.3074 N.am    1  UNL1       -0.2680
      6 H          61.8450   87.8260    8.8784 H       1  UNL1        0.1563
      7 C          62.2919   89.3135   10.3896 C.ar    1  UNL1        0.1342
      8 C          62.9386   90.6420   10.1311 C.ar    1  UNL1        0.0345
      9 C          63.7311   91.3136   11.2133 C.ar    1  UNL1        0.0045
     10 C          63.8768   90.6566   12.5539 C.ar    1  UNL1        0.0208
     11 C          63.2301   89.3281   12.8123 C.ar    1  UNL1        0.1003
     12 N          62.4377   88.6565   11.7301 N.ar    1  UNL1       -0.2290
     13 C          64.6693   91.3281   13.6360 C.ar    1  UNL1        0.0207
     14 C          65.9469   92.0383   13.2993 C.ar    1  UNL1        0.0032
     15 C          66.7394   92.7099   14.3814 C.ar    1  UNL1        0.0207
     16 C          66.2542   92.6712   15.8003 C.ar    1  UNL1        0.0989
     17 N          64.9766   91.9611   16.1370 N.ar    1  UNL1       -0.2423
     18 C          64.1842   91.2895   15.0548 C.ar    1  UNL1        0.0989
     19 N          58.4657   89.3490    6.9319 N.pl3   1  UNL1       -0.3257
     20 H          57.4908   89.2693    7.0434 H       1  UNL1        0.1472
     21 C          59.0288   90.2774    5.8969 C.ar    1  UNL1        0.0644
     22 C          60.4969   90.2568    5.5902 C.ar    1  UNL1        0.0175
     23 C          61.0599   91.1852    4.5553 C.ar    1  UNL1        0.0219
     24 C          60.1548   92.1341    3.8271 C.ar    1  UNL1        0.0987
     25 N          58.6867   92.1546    4.1337 N.ar    1  UNL1       -0.2410
     26 C          58.1237   91.2262    5.1686 C.ar    1  UNL1        0.1131
     27 C          60.7179   93.0625    2.7921 C.ar    1  UNL1        0.0971
     28 C          59.9860   94.1912    2.1285 C.ar    1  UNL1        0.0427
     29 C          60.9274   94.8515    1.1653 C.ar    1  UNL1        0.1217
     30 N          62.2412   94.1307    1.2336 N.ar    1  UNL1       -0.1676
     31 N          62.1117   93.0251    2.2390 N.ar    1  UNL1       -0.2473
     32 C          63.1872   92.0529    2.6237 C.3     1  UNL1        0.1538
@<TRIPOS>BOND
     1     2     1    1
     2     2    19    1
     3    19    21    1
     4    21    22   ar
     5    22    23   ar
     6    23    24   ar
     7    24    27    1
     8    27    28   ar
     9    28    29   ar
    10    29    30   ar
    11    30    31   ar
    12    31    32    1
    13    24    25   ar
    14    25    26   ar
    15     2     3    1
    16     3     4    2
    17     3     5   am
    18     5     7    1
    19     7     8   ar
    20     8     9   ar
    21     9    10   ar
    22    10    13    1
    23    13    14   ar
    24    14    15   ar
    25    15    16   ar
    26    16    17   ar
    27    17    18   ar
    28    10    11   ar
    29    11    12   ar
    30    26    21   ar
    31    12     7   ar
    32    31    27   ar
    33    18    13   ar
    34    19    20    1
    35     5     6    1
@<TRIPOS>MOLECULE
*****
 32 35 0 0 0
SMALL
GASTEIGER

@<TRIPOS>ATOM
      1 C          63.6272   82.9528   10.4609 C.3     1  UNL1        0.0311
      2 C          63.0181   84.2306   10.9571 C.3     1  UNL1        0.1470
      3 C          62.4819   85.2347    9.9803 C.2     1  UNL1        0.2450
      4 O          63.2695   85.5803    8.7514 O.2     1  UNL1       -0.2730
      5 N          61.1579   85.8933   10.2323 N.am    1  UNL1       -0.2680
      6 H          60.6409   85.6664   11.0389 H       1  UNL1        0.1563
      7 C          60.6216   86.8974    9.2555 C.ar    1  UNL1        0.1342
      8 C          59.8995   86.4348    8.0248 C.ar    1  UNL1        0.0345
      9 C          59.3632   87.4390    7.0480 C.ar    1  UNL1        0.0045
     10 C          59.5491   88.9056    7.3019 C.ar    1  UNL1        0.0208
     11 C          60.2713   89.3681    8.5325 C.ar    1  UNL1        0.1003
     12 N          60.8075   88.3640    9.5094 N.ar    1  UNL1       -0.2290
     13 C          59.0129   89.9097    6.3250 C.ar    1  UNL1        0.0207
     14 C          59.9580   90.7494    5.5177 C.ar    1  UNL1        0.0032
     15 C          59.4218   91.7536    4.5409 C.ar    1  UNL1        0.0207
     16 C          57.9404   91.9180    4.3714 C.ar    1  UNL1        0.0989
     17 N          56.9954   91.0783    5.1787 N.ar    1  UNL1       -0.2423
     18 C          57.5316   90.0742    6.1556 C.ar    1  UNL1        0.0989
     19 N          62.9453   84.5043   12.4301 N.pl3   1  UNL1       -0.3257
     20 H          62.6365   83.8017   13.0466 H       1  UNL1        0.1472
     21 C          63.3431   85.8486   12.9637 C.ar    1  UNL1        0.0644
     22 C          64.1260   85.9475   14.2393 C.ar    1  UNL1        0.0175
     23 C          64.5237   87.2917   14.7729 C.ar    1  UNL1        0.0219
     24 C          64.1385   88.5371   14.0309 C.ar    1  UNL1        0.0987
     25 N          63.3555   88.4383   12.7554 N.ar    1  UNL1       -0.2410
     26 C          62.9578   87.0940   12.2218 C.ar    1  UNL1        0.1131
     27 C          64.5362   89.8814   14.5646 C.ar    1  UNL1        0.0971
     28 C          65.5133   90.8274   13.9317 C.ar    1  UNL1        0.0427
     29 C          65.6077   92.0463   14.8007 C.ar    1  UNL1        0.1217
     30 N          64.6890   91.8537   15.9708 N.ar    1  UNL1       -0.1676
     31 N          64.0268   90.5157   15.8248 N.ar    1  UNL1       -0.2473
     32 C          63.0302   89.9172   16.7727 C.3     1  UNL1        0.1538
@<TRIPOS>BOND
     1     2     1    1
     2     2    19    1
     3    19    21    1
     4    21    22   ar
     5    22    23   ar
     6    23    24   ar
     7    24    27    1
     8    27    28   ar
     9    28    29   ar
    10    29    30   ar
    11    30    31   ar
    12    31    32    1
    13    24    25   ar
    14    25    26   ar
    15     2     3    1
    16     3     4    2
    17     3     5   am
    18     5     7    1
    19     7     8   ar
    20     8     9   ar
    21     9    10   ar
    22    10    13    1
    23    13    14   ar
    24    14    15   ar
    25    15    16   ar
    26    16    17   ar
    27    17    18   ar
    28    10    11   ar
    29    11    12   ar
    30    26    21   ar
    31    12     7   ar
    32    31    27   ar
    33    18    13   ar
    34    19    20    1
    35     5     6    1
