@<TRIPOS>MOLECULE
*****
 33 36 0 0 0
SMALL
GASTEIGER

@<TRIPOS>ATOM
      1 C          63.3662   88.4671   16.2691 C.ar    1  UNL1        0.0678
      2 C          62.6194   87.9688   17.4707 C.ar    1  UNL1        0.0055
      3 C          62.5737   86.4996   17.7693 C.ar    1  UNL1        0.0016
      4 C          63.2748   85.5285   16.8663 C.ar    1  UNL1        0.0181
      5 C          64.0217   86.0268   15.6646 C.ar    1  UNL1        0.0922
      6 C          64.0674   87.4961   15.3660 C.ar    1  UNL1        0.1576
      7 F          64.8143   87.9943   14.1643 F       1  UNL1       -0.2027
      8 C          63.4119   89.9363   15.9704 C.2     1  UNL1        0.2014
      9 O          63.1418   90.9318   17.0595 O.2     1  UNL1       -0.2864
     10 C          67.0347   92.7343   14.3081 C.2     1  UNL1        0.0974
     11 C          66.9637   92.9594   12.8268 C.2     1  UNL1        0.2421
     12 N          65.8537   92.3443   12.0270 N.2     1  UNL1       -0.0304
     13 C          64.8148   91.5040   12.7085 C.2     1  UNL1        0.3721
     14 N          63.6129   90.7744   12.1859 N.2     1  UNL1       -0.0307
     15 C          62.9411   90.0984   13.3442 C.2     1  UNL1        0.2390
     16 C          63.7277   90.4101   14.5827 C.2     1  UNL1        0.0895
     17 C          64.8858   91.2789   14.1898 C.2     1  UNL1        0.0782
     18 C          65.9957   91.8940   14.9896 C.3     1  UNL1        0.0751
     19 N          69.2546   93.9645   15.9076 N.1     1  UNL1       -0.1910
     20 C          68.1446   93.3494   15.1078 C.1     1  UNL1        0.1003
     21 N          64.7229   85.0558   14.7616 N.pl3   1  UNL1       -0.2127
     22 H          65.6557   85.2191   14.4927 H       1  UNL1        0.1738
     23 S          64.0027   83.8359   14.2684 S.O2    1  UNL1        0.0759
     24 O          64.5692   83.0409   15.4072 O.2     1  UNL1       -0.1499
     25 O          63.4361   84.6308   13.1295 O.2     1  UNL1       -0.1499
     26 C          63.2825   82.6160   13.7751 C.ar    1  UNL1        0.1547
     27 C          62.0192   82.1675   14.4481 C.ar    1  UNL1        0.0521
     28 C          61.2990   80.9477   13.9549 C.ar    1  UNL1        0.1416
     29 F          60.0358   80.4992   14.6280 F       1  UNL1       -0.2041
     30 C          61.8420   80.1763   12.7886 C.ar    1  UNL1        0.0320
     31 C          63.1053   80.6248   12.1156 C.ar    1  UNL1        0.0333
     32 C          63.8255   81.8447   12.6088 C.ar    1  UNL1        0.1590
     33 F          65.0888   82.2932   11.9358 F       1  UNL1       -0.2027
@<TRIPOS>BOND
     1    19    20    3
     2    20    10    1
     3    10    11    2
     4    11    12    1
     5    12    13    2
     6    13    14    1
     7    14    15    2
     8    15    16    1
     9    16     8    1
    10     8     9    2
    11     8     1    1
    12     1     2   ar
    13     2     3   ar
    14     3     4   ar
    15     4     5   ar
    16     5    21    1
    17    21    23    1
    18    23    24    2
    19    23    25    2
    20    23    26    1
    21    26    27   ar
    22    27    28   ar
    23    28    29    1
    24    28    30   ar
    25    30    31   ar
    26    31    32   ar
    27    32    33    1
    28     5     6   ar
    29     6     7    1
    30    16    17    2
    31    17    18    1
    32    18    10    1
    33    17    13    1
    34     6     1   ar
    35    32    26   ar
    36    21    22    1
@<TRIPOS>MOLECULE
*****
 33 36 0 0 0
SMALL
GASTEIGER

@<TRIPOS>ATOM
      1 C          63.6957   89.2327   15.9661 C.ar    1  UNL1        0.0678
      2 C          63.0011   88.6859   17.1779 C.ar    1  UNL1        0.0055
      3 C          62.8890   87.2028   17.3728 C.ar    1  UNL1        0.0016
      4 C          63.4716   86.2666   16.3559 C.ar    1  UNL1        0.0181
      5 C          64.1662   86.8135   15.1441 C.ar    1  UNL1        0.0922
      6 C          64.2783   88.2965   14.9491 C.ar    1  UNL1        0.1576
      7 F          64.9729   88.8433   13.7373 F       1  UNL1       -0.2027
      8 C          63.8078   90.7158   15.7712 C.2     1  UNL1        0.2014
      9 O          63.2191   91.6520   16.7845 O.2     1  UNL1       -0.2864
     10 C          62.4824   90.7972   11.0858 C.2     1  UNL1        0.0974
     11 C          63.5028   91.4530   10.2035 C.2     1  UNL1        0.2421
     12 N          64.7688   91.9966   10.7966 N.2     1  UNL1       -0.0304
     13 C          65.0144   91.8843   12.2720 C.2     1  UNL1        0.3721
     14 N          66.1597   92.3237   13.1352 N.2     1  UNL1       -0.0307
     15 C          65.8472   91.9395   14.5511 C.2     1  UNL1        0.2390
     16 C          64.5086   91.2626   14.5630 C.2     1  UNL1        0.0895
     17 C          63.9940   91.2285   13.1544 C.2     1  UNL1        0.0782
     18 C          62.7280   90.6850   12.5613 C.3     1  UNL1        0.0751
     19 N          59.9503   89.7102    9.8996 N.1     1  UNL1       -0.1910
     20 C          61.2164   90.2537   10.4927 C.1     1  UNL1        0.1003
     21 N          64.7488   85.8772   14.1271 N.pl3   1  UNL1       -0.2127
     22 H          65.5845   86.1126   13.6631 H       1  UNL1        0.1738
     23 S          64.0579   84.5824   13.8172 S.O2    1  UNL1        0.0759
     24 O          62.9563   85.3343   13.1310 O.2     1  UNL1       -0.1499
     25 O          65.1595   83.8304   14.5035 O.2     1  UNL1       -0.1499
     26 C          63.3671   83.2874   13.5073 C.ar    1  UNL1        0.1547
     27 C          63.5340   82.6524   12.1587 C.ar    1  UNL1        0.0521
     28 C          62.8432   81.3575   11.8487 C.ar    1  UNL1        0.1416
     29 F          63.0101   80.7225   10.5001 F       1  UNL1       -0.2041
     30 C          61.9855   80.6977   12.8874 C.ar    1  UNL1        0.0320
     31 C          61.8186   81.3327   14.2361 C.ar    1  UNL1        0.0333
     32 C          62.5093   82.6275   14.5460 C.ar    1  UNL1        0.1590
     33 F          62.3425   83.2626   15.8946 F       1  UNL1       -0.2027
@<TRIPOS>BOND
     1    19    20    3
     2    20    10    1
     3    10    11    2
     4    11    12    1
     5    12    13    2
     6    13    14    1
     7    14    15    2
     8    15    16    1
     9    16     8    1
    10     8     9    2
    11     8     1    1
    12     1     2   ar
    13     2     3   ar
    14     3     4   ar
    15     4     5   ar
    16     5    21    1
    17    21    23    1
    18    23    24    2
    19    23    25    2
    20    23    26    1
    21    26    27   ar
    22    27    28   ar
    23    28    29    1
    24    28    30   ar
    25    30    31   ar
    26    31    32   ar
    27    32    33    1
    28     5     6   ar
    29     6     7    1
    30    16    17    2
    31    17    18    1
    32    18    10    1
    33    17    13    1
    34     6     1   ar
    35    32    26   ar
    36    21    22    1
@<TRIPOS>MOLECULE
*****
 33 36 0 0 0
SMALL
GASTEIGER

@<TRIPOS>ATOM
      1 C          60.9681   88.7682    9.7784 C.ar    1  UNL1        0.0678
      2 C          59.9227   88.6280    8.7119 C.ar    1  UNL1        0.0055
      3 C          59.8707   87.3869    7.8712 C.ar    1  UNL1        0.0016
      4 C          60.8640   86.2858    8.0969 C.ar    1  UNL1        0.0181
      5 C          61.9094   86.4260    9.1635 C.ar    1  UNL1        0.0922
      6 C          61.9615   87.6671   10.0043 C.ar    1  UNL1        0.1576
      7 F          63.0069   87.8072   11.0708 F       1  UNL1       -0.2027
      8 C          61.0202   90.0093   10.6192 C.2     1  UNL1        0.2014
      9 O          59.7540   90.5974   11.1676 O.2     1  UNL1       -0.2864
     10 C          63.7443   90.0177   14.6560 C.2     1  UNL1        0.0974
     11 C          65.0075   90.8121   14.5042 C.2     1  UNL1        0.2421
     12 N          65.3114   91.4967   13.2046 N.2     1  UNL1       -0.0304
     13 C          64.3521   91.3868   12.0567 C.2     1  UNL1        0.3721
     14 N          64.3825   91.9478   10.6659 N.2     1  UNL1       -0.0307
     15 C          63.1381   91.5001    9.9581 C.2     1  UNL1        0.2390
     16 C          62.3386   90.6623   10.9115 C.2     1  UNL1        0.0895
     17 C          63.0889   90.5923   12.2085 C.2     1  UNL1        0.0782
     18 C          62.7850   89.9078   13.5081 C.3     1  UNL1        0.0751
     19 N          63.1364   88.6485   17.2552 N.1     1  UNL1       -0.1910
     20 C          63.4404   89.3331   15.9556 C.1     1  UNL1        0.1003
     21 N          62.9027   85.3249    9.3893 N.pl3   1  UNL1       -0.2127
     22 H          63.5884   85.1335    8.7093 H       1  UNL1        0.1738
     23 S          62.8513   84.5155   10.6511 S.O2    1  UNL1        0.0759
     24 O          61.5804   85.2084   11.0439 O.2     1  UNL1       -0.1499
     25 O          64.1223   83.8225   10.2584 O.2     1  UNL1       -0.1499
     26 C          62.8000   83.7060   11.9130 C.ar    1  UNL1        0.1547
     27 C          62.4724   82.2435   11.8529 C.ar    1  UNL1        0.0521
     28 C          62.4210   81.4340   13.1147 C.ar    1  UNL1        0.1416
     29 F          62.0934   79.9715   13.0546 F       1  UNL1       -0.2041
     30 C          62.6973   82.0871   14.4365 C.ar    1  UNL1        0.0320
     31 C          63.0249   83.5496   14.4966 C.ar    1  UNL1        0.0333
     32 C          63.0763   84.3591   13.2348 C.ar    1  UNL1        0.1590
     33 F          63.4039   85.8216   13.2948 F       1  UNL1       -0.2027
@<TRIPOS>BOND
     1    19    20    3
     2    20    10    1
     3    10    11    2
     4    11    12    1
     5    12    13    2
     6    13    14    1
     7    14    15    2
     8    15    16    1
     9    16     8    1
    10     8     9    2
    11     8     1    1
    12     1     2   ar
    13     2     3   ar
    14     3     4   ar
    15     4     5   ar
    16     5    21    1
    17    21    23    1
    18    23    24    2
    19    23    25    2
    20    23    26    1
    21    26    27   ar
    22    27    28   ar
    23    28    29    1
    24    28    30   ar
    25    30    31   ar
    26    31    32   ar
    27    32    33    1
    28     5     6   ar
    29     6     7    1
    30    16    17    2
    31    17    18    1
    32    18    10    1
    33    17    13    1
    34     6     1   ar
    35    32    26   ar
    36    21    22    1
@<TRIPOS>MOLECULE
*****
 33 36 0 0 0
SMALL
GASTEIGER

@<TRIPOS>ATOM
      1 C          62.7228   88.5324   12.1775 C.ar    1  UNL1        0.0678
      2 C          63.5110   87.8531   13.2580 C.ar    1  UNL1        0.0055
      3 C          64.4696   88.6445   14.0974 C.ar    1  UNL1        0.0016
      4 C          64.6403   90.1151   13.8564 C.ar    1  UNL1        0.0181
      5 C          63.8521   90.7944   12.7759 C.ar    1  UNL1        0.0922
      6 C          62.8934   90.0031   11.9364 C.ar    1  UNL1        0.1576
      7 F          62.1053   90.6824   10.8560 F       1  UNL1       -0.2027
      8 C          61.7641   87.7411   11.3381 C.2     1  UNL1        0.2014
      9 O          60.2897   87.9973   11.4402 O.2     1  UNL1       -0.2864
     10 C          63.3591   83.2161   12.1729 C.2     1  UNL1        0.0974
     11 C          63.7867   82.5093   10.9209 C.2     1  UNL1        0.2421
     12 N          63.6948   83.2077    9.5967 N.2     1  UNL1       -0.0304
     13 C          63.1753   84.6130    9.5244 C.2     1  UNL1        0.3721
     14 N          62.9717   85.5498    8.3707 N.2     1  UNL1       -0.0307
     15 C          62.4183   86.8356    8.9097 C.2     1  UNL1        0.2390
     16 C          62.2799   86.6935   10.3965 C.2     1  UNL1        0.0895
     17 C          62.7477   85.3198   10.7764 C.2     1  UNL1        0.0782
     18 C          62.8396   84.6214   12.1006 C.3     1  UNL1        0.0751
     19 N          63.5429   81.8191   14.8215 N.1     1  UNL1       -0.1910
     20 C          63.4510   82.5176   13.4972 C.1     1  UNL1        0.1003
     21 N          64.0227   92.2650   12.5349 N.pl3   1  UNL1       -0.2127
     22 H          63.4206   92.9088   12.9734 H       1  UNL1        0.1738
     23 S          65.1107   92.7548   11.6259 S.O2    1  UNL1        0.0759
     24 O          65.9046   93.2024   12.8171 O.2     1  UNL1       -0.1499
     25 O          64.3167   92.3073   10.4345 O.2     1  UNL1       -0.1499
     26 C          66.1987   93.2446   10.7167 C.ar    1  UNL1        0.1547
     27 C          67.2295   92.2869   10.1970 C.ar    1  UNL1        0.0521
     28 C          68.3175   92.7766    9.2879 C.ar    1  UNL1        0.1416
     29 F          69.3483   91.8189    8.7681 F       1  UNL1       -0.2041
     30 C          68.3746   94.2241    8.8985 C.ar    1  UNL1        0.0320
     31 C          67.3438   95.1818    9.4183 C.ar    1  UNL1        0.0333
     32 C          66.2559   94.6921   10.3274 C.ar    1  UNL1        0.1590
     33 F          65.2250   95.6498   10.8472 F       1  UNL1       -0.2027
@<TRIPOS>BOND
     1    19    20    3
     2    20    10    1
     3    10    11    2
     4    11    12    1
     5    12    13    2
     6    13    14    1
     7    14    15    2
     8    15    16    1
     9    16     8    1
    10     8     9    2
    11     8     1    1
    12     1     2   ar
    13     2     3   ar
    14     3     4   ar
    15     4     5   ar
    16     5    21    1
    17    21    23    1
    18    23    24    2
    19    23    25    2
    20    23    26    1
    21    26    27   ar
    22    27    28   ar
    23    28    29    1
    24    28    30   ar
    25    30    31   ar
    26    31    32   ar
    27    32    33    1
    28     5     6   ar
    29     6     7    1
    30    16    17    2
    31    17    18    1
    32    18    10    1
    33    17    13    1
    34     6     1   ar
    35    32    26   ar
    36    21    22    1
@<TRIPOS>MOLECULE
*****
 33 36 0 0 0
SMALL
GASTEIGER

@<TRIPOS>ATOM
      1 C          63.9741   84.5308   14.0345 C.ar    1  UNL1        0.0678
      2 C          63.6871   83.1316   14.4925 C.ar    1  UNL1        0.0055
      3 C          62.9159   82.1965   13.6089 C.ar    1  UNL1        0.0016
      4 C          62.4316   82.6606   12.2673 C.ar    1  UNL1        0.0181
      5 C          62.7186   84.0599   11.8093 C.ar    1  UNL1        0.0922
      6 C          63.4899   84.9950   12.6928 C.ar    1  UNL1        0.1576
      7 F          63.7768   86.3942   12.2348 F       1  UNL1       -0.2027
      8 C          64.7454   85.4659   14.9181 C.2     1  UNL1        0.2014
      9 O          66.2444   85.4147   14.9371 O.2     1  UNL1       -0.2864
     10 C          64.3937   90.3138   14.6170 C.2     1  UNL1        0.0974
     11 C          63.5515   90.9052   15.7082 C.2     1  UNL1        0.2421
     12 N          62.9249   90.0136   16.7389 N.2     1  UNL1       -0.0304
     13 C          63.1406   88.5304   16.6784 C.2     1  UNL1        0.3721
     14 N          62.6548   87.4092   17.5484 N.2     1  UNL1       -0.0307
     15 C          63.1968   86.1247   16.9948 C.2     1  UNL1        0.2390
     16 C          64.0176   86.4521   15.7828 C.2     1  UNL1        0.0895
     17 C          63.9829   87.9390   15.5873 C.2     1  UNL1        0.0782
     18 C          64.6095   88.8306   14.5566 C.3     1  UNL1        0.0751
     19 N          65.6469   92.0971   12.5556 N.1     1  UNL1       -0.1910
     20 C          65.0203   91.2054   13.5863 C.1     1  UNL1        0.1003
     21 N          62.2343   84.5240   10.4676 N.pl3   1  UNL1       -0.2127
     22 H          62.1622   83.8849    9.7222 H       1  UNL1        0.1738
     23 S          61.8600   85.9618   10.2616 S.O2    1  UNL1        0.0759
     24 O          62.6278   85.9772    8.9732 O.2     1  UNL1       -0.1499
     25 O          61.0921   85.9465   11.5500 O.2     1  UNL1       -0.1499
     26 C          61.4855   87.3997   10.0556 C.ar    1  UNL1        0.1547
     27 C          62.2507   88.4819   10.7580 C.ar    1  UNL1        0.0521
     28 C          61.8764   89.9198   10.5521 C.ar    1  UNL1        0.1416
     29 F          62.6416   91.0020   11.2544 F       1  UNL1       -0.2041
     30 C          60.7368   90.2754    9.6438 C.ar    1  UNL1        0.0320
     31 C          59.9717   89.1933    8.9414 C.ar    1  UNL1        0.0333
     32 C          60.3460   87.7554    9.1473 C.ar    1  UNL1        0.1590
     33 F          59.5809   86.6732    8.4450 F       1  UNL1       -0.2027
@<TRIPOS>BOND
     1    19    20    3
     2    20    10    1
     3    10    11    2
     4    11    12    1
     5    12    13    2
     6    13    14    1
     7    14    15    2
     8    15    16    1
     9    16     8    1
    10     8     9    2
    11     8     1    1
    12     1     2   ar
    13     2     3   ar
    14     3     4   ar
    15     4     5   ar
    16     5    21    1
    17    21    23    1
    18    23    24    2
    19    23    25    2
    20    23    26    1
    21    26    27   ar
    22    27    28   ar
    23    28    29    1
    24    28    30   ar
    25    30    31   ar
    26    31    32   ar
    27    32    33    1
    28     5     6   ar
    29     6     7    1
    30    16    17    2
    31    17    18    1
    32    18    10    1
    33    17    13    1
    34     6     1   ar
    35    32    26   ar
    36    21    22    1
@<TRIPOS>MOLECULE
*****
 33 36 0 0 0
SMALL
GASTEIGER

@<TRIPOS>ATOM
      1 C          60.9582   88.6057    9.8603 C.ar    1  UNL1        0.0678
      2 C          59.9344   88.3760    8.7883 C.ar    1  UNL1        0.0055
      3 C          59.9680   87.1149    7.9769 C.ar    1  UNL1        0.0016
      4 C          61.0255   86.0834    8.2374 C.ar    1  UNL1        0.0181
      5 C          62.0493   86.3131    9.3094 C.ar    1  UNL1        0.0922
      6 C          62.0157   87.5742   10.1208 C.ar    1  UNL1        0.1576
      7 F          63.0395   87.8039   11.1928 F       1  UNL1       -0.2027
      8 C          60.9246   89.8668   10.6717 C.2     1  UNL1        0.2014
      9 O          60.0382   91.0031   10.2555 O.2     1  UNL1       -0.2864
     10 C          65.1356   92.2020   11.4000 C.2     1  UNL1        0.0974
     11 C          65.6446   92.0603   12.8039 C.2     1  UNL1        0.2421
     12 N          64.8660   91.2619   13.8070 N.2     1  UNL1       -0.0304
     13 C          63.5783   90.6052   13.4063 C.2     1  UNL1        0.3721
     14 N          62.6010   89.7624   14.1709 N.2     1  UNL1       -0.0307
     15 C          61.4879   89.3833   13.2396 C.2     1  UNL1        0.2390
     16 C          61.7773   89.9917   11.8994 C.2     1  UNL1        0.0895
     17 C          63.0693   90.7469   12.0025 C.2     1  UNL1        0.0782
     18 C          63.8479   91.5453   10.9993 C.3     1  UNL1        0.0751
     19 N          66.6929   93.7987    9.3938 N.1     1  UNL1       -0.1910
     20 C          65.9143   93.0004   10.3969 C.1     1  UNL1        0.1003
     21 N          63.1067   85.2816    9.5699 N.pl3   1  UNL1       -0.2127
     22 H          63.8806   85.2066    8.9659 H       1  UNL1        0.1738
     23 S          62.9851   84.3645   10.7506 S.O2    1  UNL1        0.0759
     24 O          61.7134   85.0507   11.1527 O.2     1  UNL1       -0.1499
     25 O          64.2569   83.6782   10.3485 O.2     1  UNL1       -0.1499
     26 C          62.8636   83.4473   11.9313 C.ar    1  UNL1        0.1547
     27 C          62.6365   81.9796   11.7206 C.ar    1  UNL1        0.0521
     28 C          62.5150   81.0624   12.9012 C.ar    1  UNL1        0.1416
     29 F          62.2879   79.5947   12.6905 F       1  UNL1       -0.2041
     30 C          62.6205   81.6128   14.2926 C.ar    1  UNL1        0.0320
     31 C          62.8475   83.0805   14.5033 C.ar    1  UNL1        0.0333
     32 C          62.9691   83.9977   13.3227 C.ar    1  UNL1        0.1590
     33 F          63.1961   85.4653   13.5333 F       1  UNL1       -0.2027
@<TRIPOS>BOND
     1    19    20    3
     2    20    10    1
     3    10    11    2
     4    11    12    1
     5    12    13    2
     6    13    14    1
     7    14    15    2
     8    15    16    1
     9    16     8    1
    10     8     9    2
    11     8     1    1
    12     1     2   ar
    13     2     3   ar
    14     3     4   ar
    15     4     5   ar
    16     5    21    1
    17    21    23    1
    18    23    24    2
    19    23    25    2
    20    23    26    1
    21    26    27   ar
    22    27    28   ar
    23    28    29    1
    24    28    30   ar
    25    30    31   ar
    26    31    32   ar
    27    32    33    1
    28     5     6   ar
    29     6     7    1
    30    16    17    2
    31    17    18    1
    32    18    10    1
    33    17    13    1
    34     6     1   ar
    35    32    26   ar
    36    21    22    1
@<TRIPOS>MOLECULE
*****
 33 36 0 0 0
SMALL
GASTEIGER

@<TRIPOS>ATOM
      1 C          61.7033   86.2976    9.4597 C.ar    1  UNL1        0.0678
      2 C          60.5224   85.9871    8.5884 C.ar    1  UNL1        0.0055
      3 C          59.5929   87.0858    8.1655 C.ar    1  UNL1        0.0016
      4 C          59.8442   88.4950    8.6138 C.ar    1  UNL1        0.0181
      5 C          61.0252   88.8054    9.4851 C.ar    1  UNL1        0.0922
      6 C          61.9547   87.7068    9.9081 C.ar    1  UNL1        0.1576
      7 F          63.1355   88.0173   10.7793 F       1  UNL1       -0.2027
      8 C          62.6328   85.1989    9.8826 C.2     1  UNL1        0.2014
      9 O          63.5074   84.5242    8.8678 O.2     1  UNL1       -0.2864
     10 C          62.7796   80.7652   11.8918 C.2     1  UNL1        0.0974
     11 C          62.8281   80.8065   13.3904 C.2     1  UNL1        0.2421
     12 N          62.8275   82.1255   14.1048 N.2     1  UNL1       -0.0304
     13 C          62.7784   83.4031   13.3206 C.2     1  UNL1        0.3721
     14 N          62.7662   84.8417   13.7452 N.2     1  UNL1       -0.0307
     15 C          62.7101   85.6895   12.5091 C.2     1  UNL1        0.2390
     16 C          62.6877   84.7749   11.3204 C.2     1  UNL1        0.0895
     17 C          62.7300   83.3618   11.8219 C.2     1  UNL1        0.0782
     18 C          62.7306   82.0429   11.1076 C.3     1  UNL1        0.0751
     19 N          62.7808   78.1273   10.4631 N.1     1  UNL1       -0.1910
     20 C          62.7802   79.4462   11.1775 C.1     1  UNL1        0.1003
     21 N          61.2765   90.2146    9.9335 N.pl3   1  UNL1       -0.2127
     22 H          60.7988   90.9605    9.5037 H       1  UNL1        0.1738
     23 S          62.2556   90.4874   11.0366 S.O2    1  UNL1        0.0759
     24 O          61.2147   90.1189   12.0517 O.2     1  UNL1       -0.1499
     25 O          63.2966   90.8559   10.0214 O.2     1  UNL1       -0.1499
     26 C          63.2349   90.7602   12.1397 C.ar    1  UNL1        0.1547
     27 C          63.1011   90.0497   13.4539 C.ar    1  UNL1        0.0521
     28 C          64.0803   90.3224   14.5570 C.ar    1  UNL1        0.1416
     29 F          63.9465   89.6119   15.8712 F       1  UNL1       -0.2041
     30 C          65.1932   91.3057   14.3458 C.ar    1  UNL1        0.0320
     31 C          65.3270   92.0162   13.0316 C.ar    1  UNL1        0.0333
     32 C          64.3478   91.7435   11.9285 C.ar    1  UNL1        0.1590
     33 F          64.4815   92.4539   10.6143 F       1  UNL1       -0.2027
@<TRIPOS>BOND
     1    19    20    3
     2    20    10    1
     3    10    11    2
     4    11    12    1
     5    12    13    2
     6    13    14    1
     7    14    15    2
     8    15    16    1
     9    16     8    1
    10     8     9    2
    11     8     1    1
    12     1     2   ar
    13     2     3   ar
    14     3     4   ar
    15     4     5   ar
    16     5    21    1
    17    21    23    1
    18    23    24    2
    19    23    25    2
    20    23    26    1
    21    26    27   ar
    22    27    28   ar
    23    28    29    1
    24    28    30   ar
    25    30    31   ar
    26    31    32   ar
    27    32    33    1
    28     5     6   ar
    29     6     7    1
    30    16    17    2
    31    17    18    1
    32    18    10    1
    33    17    13    1
    34     6     1   ar
    35    32    26   ar
    36    21    22    1
@<TRIPOS>MOLECULE
*****
 33 36 0 0 0
SMALL
GASTEIGER

@<TRIPOS>ATOM
      1 C          64.1718   86.1846   15.4377 C.ar    1  UNL1        0.0678
      2 C          63.4048   85.5497   16.5595 C.ar    1  UNL1        0.0055
      3 C          62.6236   86.4051   17.5124 C.ar    1  UNL1        0.0016
      4 C          62.6094   87.8955   17.3435 C.ar    1  UNL1        0.0181
      5 C          63.3765   88.5304   16.2216 C.ar    1  UNL1        0.0922
      6 C          64.1577   87.6750   15.2687 C.ar    1  UNL1        0.1576
      7 F          64.9247   88.3100   14.1469 F       1  UNL1       -0.2027
      8 C          64.9530   85.3292   14.4848 C.2     1  UNL1        0.2014
      9 O          66.4392   85.1984   14.6400 O.2     1  UNL1       -0.2864
     10 C          61.7867   86.9235   11.1458 C.2     1  UNL1        0.0974
     11 C          61.3262   85.8402   10.2161 C.2     1  UNL1        0.2421
     12 N          61.8444   84.4420   10.3787 N.2     1  UNL1       -0.0304
     13 C          62.8232   84.1271   11.4708 C.2     1  UNL1        0.3721
     14 N          63.5028   82.8517   11.8725 N.2     1  UNL1       -0.0307
     15 C          64.3834   83.1467   13.0505 C.2     1  UNL1        0.2390
     16 C          64.2480   84.6045   13.3768 C.2     1  UNL1        0.0895
     17 C          63.2837   85.2104   12.4005 C.2     1  UNL1        0.0782
     18 C          62.7655   86.6086   12.2380 C.3     1  UNL1        0.0751
     19 N          60.7503   89.7200   10.8208 N.1     1  UNL1       -0.1910
     20 C          61.2685   88.3218   10.9833 C.1     1  UNL1        0.1003
     21 N          63.3624   90.0208   16.0527 N.pl3   1  UNL1       -0.2127
     22 H          63.0648   90.5973   16.7932 H       1  UNL1        0.1738
     23 S          63.8015   90.6328   14.7556 S.O2    1  UNL1        0.0759
     24 O          65.0620   91.1154   15.4099 O.2     1  UNL1       -0.1499
     25 O          62.5410   90.1503   14.1011 O.2     1  UNL1       -0.1499
     26 C          64.2407   91.2448   13.4583 C.ar    1  UNL1        0.1547
     27 C          63.5078   90.9210   12.1903 C.ar    1  UNL1        0.0521
     28 C          63.9468   91.5329   10.8931 C.ar    1  UNL1        0.1416
     29 F          63.2140   91.2091    9.6250 F       1  UNL1       -0.2041
     30 C          65.1188   92.4687   10.8639 C.ar    1  UNL1        0.0320
     31 C          65.8517   92.7926   12.1320 C.ar    1  UNL1        0.0333
     32 C          65.4126   92.1806   13.4292 C.ar    1  UNL1        0.1590
     33 F          66.1454   92.5044   14.6973 F       1  UNL1       -0.2027
@<TRIPOS>BOND
     1    19    20    3
     2    20    10    1
     3    10    11    2
     4    11    12    1
     5    12    13    2
     6    13    14    1
     7    14    15    2
     8    15    16    1
     9    16     8    1
    10     8     9    2
    11     8     1    1
    12     1     2   ar
    13     2     3   ar
    14     3     4   ar
    15     4     5   ar
    16     5    21    1
    17    21    23    1
    18    23    24    2
    19    23    25    2
    20    23    26    1
    21    26    27   ar
    22    27    28   ar
    23    28    29    1
    24    28    30   ar
    25    30    31   ar
    26    31    32   ar
    27    32    33    1
    28     5     6   ar
    29     6     7    1
    30    16    17    2
    31    17    18    1
    32    18    10    1
    33    17    13    1
    34     6     1   ar
    35    32    26   ar
    36    21    22    1
@<TRIPOS>MOLECULE
*****
 33 36 0 0 0
SMALL
GASTEIGER

@<TRIPOS>ATOM
      1 C          61.9548   86.3021   10.4624 C.ar    1  UNL1        0.0678
      2 C          60.9401   86.2115    9.3615 C.ar    1  UNL1        0.0055
      3 C          60.0447   87.3788    9.0689 C.ar    1  UNL1        0.0016
      4 C          60.1640   88.6368    9.8772 C.ar    1  UNL1        0.0181
      5 C          61.1788   88.7273   10.9781 C.ar    1  UNL1        0.0922
      6 C          62.0742   87.5600   11.2708 C.ar    1  UNL1        0.1576
      7 F          63.0890   87.6507   12.3717 F       1  UNL1       -0.2027
      8 C          62.8503   85.1348   10.7550 C.2     1  UNL1        0.2014
      9 O          63.7646   84.6055    9.6902 O.2     1  UNL1       -0.2864
     10 C          62.7475   80.4467   12.0693 C.2     1  UNL1        0.0974
     11 C          62.7374   80.2594   13.5575 C.2     1  UNL1        0.2421
     12 N          62.7584   81.4543   14.4640 N.2     1  UNL1       -0.0304
     13 C          62.7895   82.8365   13.8823 C.2     1  UNL1        0.3721
     14 N          62.8150   84.1938   14.5205 N.2     1  UNL1       -0.0307
     15 C          62.8409   85.2199   13.4267 C.2     1  UNL1        0.2390
     16 C          62.8314   84.4969   12.1125 C.2     1  UNL1        0.0895
     17 C          62.7996   83.0239   12.3941 C.2     1  UNL1        0.0782
     18 C          62.7786   81.8289   11.4876 C.3     1  UNL1        0.0751
     19 N          62.7055   78.0569   10.2563 N.1     1  UNL1       -0.1910
     20 C          62.7265   79.2518   11.1628 C.1     1  UNL1        0.1003
     21 N          61.2981   89.9853   11.7864 N.pl3   1  UNL1       -0.2127
     22 H          60.4927   90.5062   12.0081 H       1  UNL1        0.1738
     23 S          62.6446   90.4496   12.2568 S.O2    1  UNL1        0.0759
     24 O          63.0396   90.7406   10.8394 O.2     1  UNL1       -0.1499
     25 O          62.2497   90.1587   13.6744 O.2     1  UNL1       -0.1499
     26 C          63.9911   90.9140   12.7274 C.ar    1  UNL1        0.1547
     27 C          64.7116   92.0000   11.9847 C.ar    1  UNL1        0.0521
     28 C          66.0581   92.4643   12.4552 C.ar    1  UNL1        0.1416
     29 F          66.7785   93.5503   11.7126 F       1  UNL1       -0.2041
     30 C          66.6841   91.8427   13.6683 C.ar    1  UNL1        0.0320
     31 C          65.9637   90.7567   14.4109 C.ar    1  UNL1        0.0333
     32 C          64.6172   90.2923   13.9405 C.ar    1  UNL1        0.1590
     33 F          63.8967   89.2063   14.6830 F       1  UNL1       -0.2027
@<TRIPOS>BOND
     1    19    20    3
     2    20    10    1
     3    10    11    2
     4    11    12    1
     5    12    13    2
     6    13    14    1
     7    14    15    2
     8    15    16    1
     9    16     8    1
    10     8     9    2
    11     8     1    1
    12     1     2   ar
    13     2     3   ar
    14     3     4   ar
    15     4     5   ar
    16     5    21    1
    17    21    23    1
    18    23    24    2
    19    23    25    2
    20    23    26    1
    21    26    27   ar
    22    27    28   ar
    23    28    29    1
    24    28    30   ar
    25    30    31   ar
    26    31    32   ar
    27    32    33    1
    28     5     6   ar
    29     6     7    1
    30    16    17    2
    31    17    18    1
    32    18    10    1
    33    17    13    1
    34     6     1   ar
    35    32    26   ar
    36    21    22    1
