@<TRIPOS>MOLECULE
*****
 42 44 0 0 0
SMALL
GASTEIGER

@<TRIPOS>ATOM
      1 C          61.8479   86.1782    9.6799 C.3     1  UNL1        0.0920
      2 C          60.7098   85.9901    8.7210 C.3     1  UNL1        0.2582
      3 S          59.7392   87.1082    8.4805 S.O     1  UNL1        0.0319
      4 O          58.6011   86.9201    7.5217 O.co2   1  UNL1       -0.6812
      5 C          59.9068   88.4143    9.1988 C.3     1  UNL1        0.2736
      6 C          61.0449   88.6024   10.1575 C.3     1  UNL1        0.1416
      7 C          62.0154   87.4843   10.3981 C.3     1  UNL1        0.1353
      8 O          63.1536   87.6724   11.3570 O.3     1  UNL1       -0.3827
      9 H          63.1162   88.5663   11.7318 H       1  UNL1        0.2104
     10 N          61.2124   89.9086   10.8759 N.3     1  UNL1       -0.2886
     11 H          61.3196   89.6885   11.8660 H       1  UNL1        0.1237
     12 C          62.3423   90.8254   10.5113 C.3     1  UNL1        0.0990
     13 C          63.3638   91.2036   11.5425 C.ar    1  UNL1        0.0332
     14 C          63.3766   90.7595   12.9752 C.ar    1  UNL1        0.1187
     15 N          64.5726   91.3737   13.6402 N.ar    1  UNL1       -0.1680
     16 N          65.2991   92.1974   12.6185 N.ar    1  UNL1       -0.2497
     17 C          64.5520   92.0923   11.3220 C.ar    1  UNL1        0.0937
     18 C          66.5525   92.9875   12.8522 C.3     1  UNL1        0.1274
     19 C          67.4637   92.6296   13.9886 C.3     1  UNL1        0.0226
     20 C          68.2015   91.6756   13.0964 C.3     1  UNL1        0.0020
     21 C          66.7260   93.5834   14.8807 C.3     1  UNL1        0.0020
     22 C          68.3750   92.2715   15.1249 C.3     1  UNL1        0.0020
     23 C          62.8185   85.0601    9.9204 C.3     1  UNL1        0.0342
     24 C          62.3766   84.0326   13.7282 C.ar    1  UNL1        0.1535
     25 C          62.4923   84.8730   12.4912 C.ar    1  UNL1        0.0341
     26 C          62.7028   84.2196   11.1575 C.ar    1  UNL1       -0.0166
     27 C          62.7975   82.7257   11.0608 C.ar    1  UNL1        0.0268
     28 C          62.6818   81.8853   12.2978 C.ar    1  UNL1        0.1556
     29 F          62.7765   80.3914   12.2012 F       1  UNL1       -0.2028
     30 C          62.4713   82.5387   13.6315 C.ar    1  UNL1        0.1037
     31 N          62.3556   81.6982   14.8686 N.pl3   1  UNL1       -0.3529
     32 H          62.4177   80.7178   14.8051 H       1  UNL1        0.1425
     33 H          62.2174   82.1271   15.7439 H       1  UNL1        0.1425
     34 O          62.1661   84.6860   15.0619 O.3     1  UNL1       -0.4665
     35 C          63.3165   85.3436   15.7648 C.3     1  UNL1        0.2891
     36 C          64.6978   85.2562   15.1863 C.3     1  UNL1        0.4366
     37 F          66.0790   85.1689   14.6080 F       1  UNL1       -0.1663
     38 F          64.7929   83.8263   15.6294 F       1  UNL1       -0.1663
     39 F          64.6027   86.6861   14.7433 F       1  UNL1       -0.1663
     40 C          63.0857   86.0886   17.0461 C.3     1  UNL1        0.1945
     41 C          63.0787   88.6800   16.8600 C.3     1  UNL1        0.1743
     42 O          62.3365   87.3881   17.0336 O.3     1  UNL1       -0.3469
@<TRIPOS>UNITY_ATOM_ATTR
3 1
charge 1
4 1
charge -1
@<TRIPOS>BOND
     1    41    42    1
     2    42    40    1
     3    35    40    1
     4    35    34    1
     5    34    24    1
     6    24    25   ar
     7    25    26   ar
     8    26    23    1
     9     1    23    1
    10     1     2    1
    11     2     3    1
    12     3     4    2
    13     3     5    1
    14     5     6    1
    15     6    10    1
    16    10    12    1
    17    12    13    1
    18    13    14   ar
    19    14    15   ar
    20    15    16   ar
    21    16    18    1
    22    18    19    1
    23    19    20    1
    24    19    21    1
    25    19    22    1
    26    16    17   ar
    27     6     7    1
    28     7     8    1
    29    26    27   ar
    30    27    28   ar
    31    28    29    1
    32    28    30   ar
    33    30    31    1
    34    35    36    1
    35    36    37    1
    36    36    38    1
    37    36    39    1
    38    30    24   ar
    39     7     1    1
    40    17    13   ar
    41    10    11    1
    42     8     9    1
    43    31    32    1
    44    31    33    1
@<TRIPOS>MOLECULE
*****
 42 44 0 0 0
SMALL
GASTEIGER

@<TRIPOS>ATOM
      1 C          61.1427   89.3961   10.6877 C.3     1  UNL1        0.0920
      2 C          60.4492   89.9483    9.4776 C.3     1  UNL1        0.2582
      3 S          60.0809   89.0381    8.3437 S.O     1  UNL1        0.0319
      4 O          59.3875   89.5902    7.1336 O.co2   1  UNL1       -0.6812
      5 C          60.4059   87.5757    8.4199 C.3     1  UNL1        0.2736
      6 C          61.0993   87.0236    9.6300 C.3     1  UNL1        0.1416
      7 C          61.4677   87.9338   10.7639 C.3     1  UNL1        0.1353
      8 O          62.1611   87.3816   11.9740 O.3     1  UNL1       -0.3827
      9 H          62.2953   86.4274   11.8625 H       1  UNL1        0.2104
     10 N          61.4244   85.5611    9.7062 N.3     1  UNL1       -0.2886
     11 H          60.8519   85.0952    9.0022 H       1  UNL1        0.1237
     12 C          62.8343   85.0943    9.4960 C.3     1  UNL1        0.0990
     13 C          63.3963   83.9971   10.3506 C.ar    1  UNL1        0.0332
     14 C          64.6066   83.1681   10.0377 C.ar    1  UNL1        0.1187
     15 N          64.8050   82.1949   11.1618 N.ar    1  UNL1       -0.1680
     16 N          63.7174   82.4225   12.1694 N.ar    1  UNL1       -0.2497
     17 C          62.8468   83.5364   11.6680 C.ar    1  UNL1        0.0937
     18 C          63.5328   81.6687   13.4530 C.3     1  UNL1        0.1274
     19 C          62.1703   81.1802   13.8466 C.3     1  UNL1        0.0226
     20 C          62.3615   79.9605   12.9946 C.3     1  UNL1        0.0020
     21 C          61.9791   82.3999   14.6985 C.3     1  UNL1        0.0020
     22 C          60.8078   80.6917   14.2401 C.3     1  UNL1        0.0020
     23 C          61.5110   90.3064   11.8217 C.3     1  UNL1        0.0342
     24 C          65.0887   91.2214   13.2754 C.ar    1  UNL1        0.1535
     25 C          63.6970   90.6703   13.1778 C.ar    1  UNL1        0.0341
     26 C          62.9027   90.8576   11.9192 C.ar    1  UNL1       -0.0166
     27 C          63.5001   91.5960   10.7583 C.ar    1  UNL1        0.0268
     28 C          64.8917   92.1471   10.8559 C.ar    1  UNL1        0.1556
     29 F          65.4891   92.8855    9.6949 F       1  UNL1       -0.2028
     30 C          65.6860   91.9598   12.1145 C.ar    1  UNL1        0.1037
     31 N          67.0777   92.5110   12.2120 N.pl3   1  UNL1       -0.3529
     32 H          67.4698   92.9956   11.4500 H       1  UNL1        0.1425
     33 H          67.5990   92.3881   13.0381 H       1  UNL1        0.1425
     34 O          65.8829   91.0341   14.5340 O.3     1  UNL1       -0.4665
     35 C          65.9216   92.1225   15.5654 C.3     1  UNL1        0.2891
     36 C          67.1145   93.0275   15.6565 C.3     1  UNL1        0.4366
     37 F          68.3073   93.9324   15.7476 F       1  UNL1       -0.1663
     38 F          67.8010   92.0331   16.5453 F       1  UNL1       -0.1663
     39 F          66.4279   94.0218   14.7678 F       1  UNL1       -0.1663
     40 C          64.7675   92.3060   16.5058 C.3     1  UNL1        0.1945
     41 C          63.3979   90.1046   16.6743 C.3     1  UNL1        0.1743
     42 O          63.4913   91.5498   16.2834 O.3     1  UNL1       -0.3469
@<TRIPOS>UNITY_ATOM_ATTR
3 1
charge 1
4 1
charge -1
@<TRIPOS>BOND
     1    41    42    1
     2    42    40    1
     3    35    40    1
     4    35    34    1
     5    34    24    1
     6    24    25   ar
     7    25    26   ar
     8    26    23    1
     9     1    23    1
    10     1     2    1
    11     2     3    1
    12     3     4    2
    13     3     5    1
    14     5     6    1
    15     6    10    1
    16    10    12    1
    17    12    13    1
    18    13    14   ar
    19    14    15   ar
    20    15    16   ar
    21    16    18    1
    22    18    19    1
    23    19    20    1
    24    19    21    1
    25    19    22    1
    26    16    17   ar
    27     6     7    1
    28     7     8    1
    29    26    27   ar
    30    27    28   ar
    31    28    29    1
    32    28    30   ar
    33    30    31    1
    34    35    36    1
    35    36    37    1
    36    36    38    1
    37    36    39    1
    38    30    24   ar
    39     7     1    1
    40    17    13   ar
    41    10    11    1
    42     8     9    1
    43    31    32    1
    44    31    33    1
@<TRIPOS>MOLECULE
*****
 42 44 0 0 0
SMALL
GASTEIGER

@<TRIPOS>ATOM
      1 C          61.7950   90.0680   10.6124 C.3     1  UNL1        0.0920
      2 C          60.6006   90.3753   11.4663 C.3     1  UNL1        0.2582
      3 S          59.5945   89.3029   11.7626 S.O     1  UNL1        0.0319
      4 O          58.4002   89.6101   12.6164 O.co2   1  UNL1       -0.6812
      5 C          59.7829   87.9231   11.2049 C.3     1  UNL1        0.2736
      6 C          60.9773   87.6159   10.3511 C.3     1  UNL1        0.1416
      7 C          61.9833   88.6883   10.0548 C.3     1  UNL1        0.1353
      8 O          63.1777   88.3810    9.2010 O.3     1  UNL1       -0.3827
      9 H          63.1473   87.4516    8.9249 H       1  UNL1        0.2104
     10 N          61.1656   86.2361    9.7935 N.3     1  UNL1       -0.2886
     11 H          61.1576   86.3256    8.7774 H       1  UNL1        0.1237
     12 C          62.3889   85.4441   10.1488 C.3     1  UNL1        0.0990
     13 C          62.5997   84.9827   11.5604 C.ar    1  UNL1        0.0332
     14 C          63.0844   85.8277   12.7011 C.ar    1  UNL1        0.1187
     15 N          63.1471   84.9625   13.9248 N.ar    1  UNL1       -0.1680
     16 N          62.7012   83.5828   13.5405 N.ar    1  UNL1       -0.2497
     17 C          62.3630   83.5953   12.0792 C.ar    1  UNL1        0.0937
     18 C          62.6097   82.3986   14.4566 C.3     1  UNL1        0.1274
     19 C          62.4466   81.0206   13.8869 C.3     1  UNL1        0.0226
     20 C          63.9195   80.9611   13.6092 C.3     1  UNL1        0.0020
     21 C          60.9737   81.0802   14.1647 C.3     1  UNL1        0.0020
     22 C          62.2835   79.6427   13.3173 C.3     1  UNL1        0.0020
     23 C          62.8010   91.1405   10.3162 C.3     1  UNL1        0.0342
     24 C          66.1332   92.6204   11.8834 C.ar    1  UNL1        0.1535
     25 C          65.0313   92.3353   10.9066 C.ar    1  UNL1        0.0341
     26 C          63.9030   91.4256   11.2932 C.ar    1  UNL1       -0.0166
     27 C          63.8767   90.8010   12.6566 C.ar    1  UNL1        0.0268
     28 C          64.9787   91.0861   13.6335 C.ar    1  UNL1        0.1556
     29 F          64.9525   90.4615   14.9971 F       1  UNL1       -0.2028
     30 C          66.1069   91.9958   13.2469 C.ar    1  UNL1        0.1037
     31 N          67.2089   92.2809   14.2239 N.pl3   1  UNL1       -0.3529
     32 H          67.1917   91.8710   15.1188 H       1  UNL1        0.1425
     33 H          67.9494   92.8780   13.9702 H       1  UNL1        0.1425
     34 O          67.2614   93.5302   11.4968 O.3     1  UNL1       -0.4665
     35 C          67.4577   93.9127   10.0598 C.3     1  UNL1        0.2891
     36 C          68.2423   93.0184    9.1461 C.3     1  UNL1        0.4366
     37 F          69.0268   92.1243    8.2323 F       1  UNL1       -0.1663
     38 F          68.6551   92.1810   10.3200 F       1  UNL1       -0.1663
     39 F          67.8295   93.8559    7.9721 F       1  UNL1       -0.1663
     40 C          66.8695   95.1894    9.5364 C.3     1  UNL1        0.1945
     41 C          65.9424   96.7873   11.3633 C.3     1  UNL1        0.1743
     42 O          65.7054   95.8224   10.2395 O.3     1  UNL1       -0.3469
@<TRIPOS>UNITY_ATOM_ATTR
3 1
charge 1
4 1
charge -1
@<TRIPOS>BOND
     1    41    42    1
     2    42    40    1
     3    35    40    1
     4    35    34    1
     5    34    24    1
     6    24    25   ar
     7    25    26   ar
     8    26    23    1
     9     1    23    1
    10     1     2    1
    11     2     3    1
    12     3     4    2
    13     3     5    1
    14     5     6    1
    15     6    10    1
    16    10    12    1
    17    12    13    1
    18    13    14   ar
    19    14    15   ar
    20    15    16   ar
    21    16    18    1
    22    18    19    1
    23    19    20    1
    24    19    21    1
    25    19    22    1
    26    16    17   ar
    27     6     7    1
    28     7     8    1
    29    26    27   ar
    30    27    28   ar
    31    28    29    1
    32    28    30   ar
    33    30    31    1
    34    35    36    1
    35    36    37    1
    36    36    38    1
    37    36    39    1
    38    30    24   ar
    39     7     1    1
    40    17    13   ar
    41    10    11    1
    42     8     9    1
    43    31    32    1
    44    31    33    1
@<TRIPOS>MOLECULE
*****
 42 44 0 0 0
SMALL
GASTEIGER

@<TRIPOS>ATOM
      1 C          62.3598   85.5813   10.0100 C.3     1  UNL1        0.0920
      2 C          61.4072   85.3791    8.8690 C.3     1  UNL1        0.2582
      3 S          60.3162   86.3772    8.6170 S.O     1  UNL1        0.0319
      4 O          59.3637   86.1750    7.4760 O.co2   1  UNL1       -0.6812
      5 C          60.1777   87.5774    9.5060 C.3     1  UNL1        0.2736
      6 C          61.1302   87.7796   10.6469 C.3     1  UNL1        0.1416
      7 C          62.2213   86.7815   10.8989 C.3     1  UNL1        0.1353
      8 O          63.1738   86.9837   12.0399 O.3     1  UNL1       -0.3827
      9 H          62.9463   87.8011   12.5101 H       1  UNL1        0.2104
     10 N          60.9918   88.9798   11.5359 N.3     1  UNL1       -0.2886
     11 H          61.4444   88.7456   12.4195 H       1  UNL1        0.1237
     12 C          61.5486   90.3032   11.1015 C.3     1  UNL1        0.0990
     13 C          62.7586   90.8684   11.7845 C.ar    1  UNL1        0.0332
     14 C          63.1589   90.6285   13.2100 C.ar    1  UNL1        0.1187
     15 N          64.4284   91.3846   13.4685 N.ar    1  UNL1       -0.1680
     16 N          64.8126   92.0918   12.2026 N.ar    1  UNL1       -0.2497
     17 C          63.7806   91.7727   11.1619 C.ar    1  UNL1        0.0937
     18 C          66.0173   92.9647   12.0112 C.3     1  UNL1        0.1274
     19 C          67.0938   92.5569   11.0495 C.3     1  UNL1        0.0226
     20 C          66.4565   93.3949    9.9809 C.3     1  UNL1        0.0020
     21 C          67.7310   91.7189   12.1180 C.3     1  UNL1        0.0020
     22 C          68.1701   92.1492   10.0877 C.3     1  UNL1        0.0020
     23 C          63.4508   84.5832   10.2620 C.3     1  UNL1        0.0342
     24 C          63.1559   82.8644   13.8269 C.ar    1  UNL1        0.1535
     25 C          63.3292   83.9140   12.7695 C.ar    1  UNL1        0.0341
     26 C          63.2775   83.5335   11.3194 C.ar    1  UNL1       -0.0166
     27 C          63.0524   82.1035   10.9269 C.ar    1  UNL1        0.0268
     28 C          62.8791   81.0539   11.9843 C.ar    1  UNL1        0.1556
     29 F          62.6540   79.6237   11.5918 F       1  UNL1       -0.2028
     30 C          62.9308   81.4344   13.4343 C.ar    1  UNL1        0.1037
     31 N          62.7574   80.3847   14.4918 N.pl3   1  UNL1       -0.3529
     32 H          62.6097   79.4460   14.2342 H       1  UNL1        0.1425
     33 H          62.7914   80.6344   15.4435 H       1  UNL1        0.1425
     34 O          63.2076   83.2449   15.2769 O.3     1  UNL1       -0.4665
     35 C          63.4408   84.6737   15.6696 C.3     1  UNL1        0.2891
     36 C          62.4130   85.4060   16.4804 C.3     1  UNL1        0.4366
     37 F          61.3853   86.1383   17.2912 F       1  UNL1       -0.1663
     38 F          61.3311   84.8794   15.5848 F       1  UNL1       -0.1663
     39 F          63.4949   85.9327   17.3760 F       1  UNL1       -0.1663
     40 C          64.7017   85.3702   15.2514 C.3     1  UNL1        0.1945
     41 C          64.3408   87.9357   15.0560 C.3     1  UNL1        0.1743
     42 O          64.6300   86.6118   14.4127 O.3     1  UNL1       -0.3469
@<TRIPOS>UNITY_ATOM_ATTR
3 1
charge 1
4 1
charge -1
@<TRIPOS>BOND
     1    41    42    1
     2    42    40    1
     3    35    40    1
     4    35    34    1
     5    34    24    1
     6    24    25   ar
     7    25    26   ar
     8    26    23    1
     9     1    23    1
    10     1     2    1
    11     2     3    1
    12     3     4    2
    13     3     5    1
    14     5     6    1
    15     6    10    1
    16    10    12    1
    17    12    13    1
    18    13    14   ar
    19    14    15   ar
    20    15    16   ar
    21    16    18    1
    22    18    19    1
    23    19    20    1
    24    19    21    1
    25    19    22    1
    26    16    17   ar
    27     6     7    1
    28     7     8    1
    29    26    27   ar
    30    27    28   ar
    31    28    29    1
    32    28    30   ar
    33    30    31    1
    34    35    36    1
    35    36    37    1
    36    36    38    1
    37    36    39    1
    38    30    24   ar
    39     7     1    1
    40    17    13   ar
    41    10    11    1
    42     8     9    1
    43    31    32    1
    44    31    33    1
@<TRIPOS>MOLECULE
*****
 42 44 0 0 0
SMALL
GASTEIGER

@<TRIPOS>ATOM
      1 C          61.9829   86.8434    9.8953 C.3     1  UNL1        0.0920
      2 C          62.4064   87.8172   10.9548 C.3     1  UNL1        0.2582
      3 S          61.7746   89.1761   11.0203 S.O     1  UNL1        0.0319
      4 O          62.1980   90.1499   12.0796 O.co2   1  UNL1       -0.6812
      5 C          60.7192   89.5611   10.0262 C.3     1  UNL1        0.2736
      6 C          60.2957   88.5873    8.9669 C.3     1  UNL1        0.1416
      7 C          60.9275   87.2285    8.9014 C.3     1  UNL1        0.1353
      8 O          60.5040   86.2547    7.8419 O.3     1  UNL1       -0.3827
      9 H          59.8188   86.6586    7.2868 H       1  UNL1        0.2104
     10 N          59.2403   88.9724    7.9729 N.3     1  UNL1       -0.2886
     11 H          58.9351   89.9144    8.2174 H       1  UNL1        0.1237
     12 C          59.5601   88.9875    6.5074 C.3     1  UNL1        0.0990
     13 C          59.2893   90.2180    5.6934 C.ar    1  UNL1        0.0332
     14 C          57.9583   90.8890    5.5260 C.ar    1  UNL1        0.1187
     15 N          58.1483   92.0792    4.6329 N.ar    1  UNL1       -0.1680
     16 N          59.5968   92.1436    4.2484 N.ar    1  UNL1       -0.2497
     17 C          60.3019   90.9933    4.9038 C.ar    1  UNL1        0.0937
     18 C          60.2291   93.1769    3.3639 C.3     1  UNL1        0.1274
     19 C          60.7436   92.7908    2.0088 C.3     1  UNL1        0.0226
     20 C          59.4027   93.1000    1.4116 C.3     1  UNL1        0.0020
     21 C          62.0844   92.4816    2.6061 C.3     1  UNL1        0.0020
     22 C          61.2581   92.4047    0.6538 C.3     1  UNL1        0.0020
     23 C          62.6147   85.4846    9.8299 C.3     1  UNL1        0.0342
     24 C          62.3924   84.2914   13.6084 C.ar    1  UNL1        0.1535
     25 C          62.4029   85.1822   12.4016 C.ar    1  UNL1        0.0341
     26 C          62.6043   84.5937   11.0367 C.ar    1  UNL1       -0.0166
     27 C          62.7954   83.1144   10.8785 C.ar    1  UNL1        0.0268
     28 C          62.7849   82.2236   12.0853 C.ar    1  UNL1        0.1556
     29 F          62.9760   80.7442   11.9272 F       1  UNL1       -0.2028
     30 C          62.5835   82.8121   13.4502 C.ar    1  UNL1        0.1037
     31 N          62.5731   81.9212   14.6571 N.pl3   1  UNL1       -0.3529
     32 H          62.6985   80.9503   14.5532 H       1  UNL1        0.1425
     33 H          62.4409   82.3075   15.5529 H       1  UNL1        0.1425
     34 O          62.1910   84.8800   14.9733 O.3     1  UNL1       -0.4665
     35 C          63.3520   85.4780   15.7110 C.3     1  UNL1        0.2891
     36 C          64.7326   85.3955   15.1302 C.3     1  UNL1        0.4366
     37 F          66.1131   85.3129   14.5494 F       1  UNL1       -0.1663
     38 F          64.6107   86.8078   14.6397 F       1  UNL1       -0.1663
     39 F          64.8545   83.9833   15.6207 F       1  UNL1       -0.1663
     40 C          63.1326   86.1587   17.0296 C.3     1  UNL1        0.1945
     41 C          63.1154   88.7447   16.7798 C.3     1  UNL1        0.1743
     42 O          62.3964   87.4644   17.0863 O.3     1  UNL1       -0.3469
@<TRIPOS>UNITY_ATOM_ATTR
3 1
charge 1
4 1
charge -1
@<TRIPOS>BOND
     1    41    42    1
     2    42    40    1
     3    35    40    1
     4    35    34    1
     5    34    24    1
     6    24    25   ar
     7    25    26   ar
     8    26    23    1
     9     1    23    1
    10     1     2    1
    11     2     3    1
    12     3     4    2
    13     3     5    1
    14     5     6    1
    15     6    10    1
    16    10    12    1
    17    12    13    1
    18    13    14   ar
    19    14    15   ar
    20    15    16   ar
    21    16    18    1
    22    18    19    1
    23    19    20    1
    24    19    21    1
    25    19    22    1
    26    16    17   ar
    27     6     7    1
    28     7     8    1
    29    26    27   ar
    30    27    28   ar
    31    28    29    1
    32    28    30   ar
    33    30    31    1
    34    35    36    1
    35    36    37    1
    36    36    38    1
    37    36    39    1
    38    30    24   ar
    39     7     1    1
    40    17    13   ar
    41    10    11    1
    42     8     9    1
    43    31    32    1
    44    31    33    1
@<TRIPOS>MOLECULE
*****
 42 44 0 0 0
SMALL
GASTEIGER

@<TRIPOS>ATOM
      1 C          61.3622   89.4476   10.5916 C.3     1  UNL1        0.0920
      2 C          60.3523   89.7719    9.5309 C.3     1  UNL1        0.2582
      3 S          60.0608   88.7797    8.4444 S.O     1  UNL1        0.0319
      4 O          59.0510   89.1040    7.3837 O.co2   1  UNL1       -0.6812
      5 C          60.7793   87.4631    8.4186 C.3     1  UNL1        0.2736
      6 C          61.7891   87.1389    9.4792 C.3     1  UNL1        0.1416
      7 C          62.0805   88.1311   10.5657 C.3     1  UNL1        0.1353
      8 O          63.0904   87.8068   11.6265 O.3     1  UNL1       -0.3827
      9 H          63.4584   86.9242   11.4635 H       1  UNL1        0.2104
     10 N          62.5075   85.8223    9.4534 N.3     1  UNL1       -0.2886
     11 H          63.4611   86.0010    9.7684 H       1  UNL1        0.1237
     12 C          61.9922   84.6707   10.2647 C.3     1  UNL1        0.0990
     13 C          62.8127   84.1224   11.3943 C.ar    1  UNL1        0.0332
     14 C          63.7468   82.9513   11.3181 C.ar    1  UNL1        0.1187
     15 N          64.3546   82.7540   12.6751 N.ar    1  UNL1       -0.1680
     16 N          63.7960   83.8033   13.5902 N.ar    1  UNL1       -0.2497
     17 C          62.8431   84.6489   12.7985 C.ar    1  UNL1        0.0937
     18 C          64.1315   83.9764   15.0419 C.3     1  UNL1        0.1274
     19 C          63.7940   85.2594   15.7418 C.3     1  UNL1        0.0226
     20 C          65.0261   85.8956   15.1695 C.3     1  UNL1        0.0020
     21 C          62.5620   84.6232   16.3140 C.3     1  UNL1        0.0020
     22 C          63.4566   86.5424   16.4416 C.3     1  UNL1        0.0020
     23 C          61.6536   90.4398   11.6781 C.3     1  UNL1        0.0342
     24 C          65.1685   91.3082   13.3035 C.ar    1  UNL1        0.1535
     25 C          63.7798   90.7668   13.1351 C.ar    1  UNL1        0.0341
     26 C          63.0424   90.9813   11.8466 C.ar    1  UNL1       -0.0166
     27 C          63.6936   91.7371   10.7265 C.ar    1  UNL1        0.0268
     28 C          65.0823   92.2785   10.8950 C.ar    1  UNL1        0.1556
     29 F          65.7336   93.0344    9.7749 F       1  UNL1       -0.2028
     30 C          65.8197   92.0641   12.1835 C.ar    1  UNL1        0.1037
     31 N          67.2084   92.6055   12.3519 N.pl3   1  UNL1       -0.3529
     32 H          67.6359   93.1016   11.6168 H       1  UNL1        0.1425
     33 H          67.6925   92.4648   13.1976 H       1  UNL1        0.1425
     34 O          65.9059   91.0938   14.5920 O.3     1  UNL1       -0.4665
     35 C          65.9497   92.1838   15.6215 C.3     1  UNL1        0.2891
     36 C          67.1341   93.1016   15.6922 C.3     1  UNL1        0.4366
     37 F          68.3185   94.0193   15.7629 F       1  UNL1       -0.1663
     38 F          66.4452   94.0619   14.7685 F       1  UNL1       -0.1663
     39 F          67.8230   92.1413   16.6158 F       1  UNL1       -0.1663
     40 C          64.8091   92.3562   16.5803 C.3     1  UNL1        0.1945
     41 C          63.3846   90.1848   16.6578 C.3     1  UNL1        0.1743
     42 O          63.5110   91.6447   16.3374 O.3     1  UNL1       -0.3469
@<TRIPOS>UNITY_ATOM_ATTR
3 1
charge 1
4 1
charge -1
@<TRIPOS>BOND
     1    41    42    1
     2    42    40    1
     3    35    40    1
     4    35    34    1
     5    34    24    1
     6    24    25   ar
     7    25    26   ar
     8    26    23    1
     9     1    23    1
    10     1     2    1
    11     2     3    1
    12     3     4    2
    13     3     5    1
    14     5     6    1
    15     6    10    1
    16    10    12    1
    17    12    13    1
    18    13    14   ar
    19    14    15   ar
    20    15    16   ar
    21    16    18    1
    22    18    19    1
    23    19    20    1
    24    19    21    1
    25    19    22    1
    26    16    17   ar
    27     6     7    1
    28     7     8    1
    29    26    27   ar
    30    27    28   ar
    31    28    29    1
    32    28    30   ar
    33    30    31    1
    34    35    36    1
    35    36    37    1
    36    36    38    1
    37    36    39    1
    38    30    24   ar
    39     7     1    1
    40    17    13   ar
    41    10    11    1
    42     8     9    1
    43    31    32    1
    44    31    33    1
@<TRIPOS>MOLECULE
*****
 42 44 0 0 0
SMALL
GASTEIGER

@<TRIPOS>ATOM
      1 C          61.8189   89.9618   10.5633 C.3     1  UNL1        0.0920
      2 C          60.6767   90.3481   11.4558 C.3     1  UNL1        0.2582
      3 S          59.6260   89.3375   11.8090 S.O     1  UNL1        0.0319
      4 O          58.4839   89.7237   12.7014 O.co2   1  UNL1       -0.6812
      5 C          59.7174   87.9407   11.2698 C.3     1  UNL1        0.2736
      6 C          60.8595   87.5545   10.3774 C.3     1  UNL1        0.1416
      7 C          61.9103   88.5650   10.0242 C.3     1  UNL1        0.1353
      8 O          63.0524   88.1788    9.1318 O.3     1  UNL1       -0.3827
      9 H          62.9609   87.2481    8.8740 H       1  UNL1        0.2104
     10 N          60.9509   86.1577    9.8382 N.3     1  UNL1       -0.2886
     11 H          60.4257   86.1446    8.9639 H       1  UNL1        0.1237
     12 C          62.2921   85.5526    9.5467 C.3     1  UNL1        0.0990
     13 C          62.9534   84.6695   10.5629 C.ar    1  UNL1        0.0332
     14 C          63.9213   83.5613   10.2714 C.ar    1  UNL1        0.1187
     15 N          64.3290   82.9465   11.5775 N.ar    1  UNL1       -0.1680
     16 N          63.6131   83.6747   12.6762 N.ar    1  UNL1       -0.2497
     17 C          62.7630   84.7396   12.0492 C.ar    1  UNL1        0.0937
     18 C          63.7273   83.3884   14.1442 C.3     1  UNL1        0.1274
     19 C          63.8024   84.5203   15.1255 C.3     1  UNL1        0.0226
     20 C          62.4363   84.1686   15.6357 C.3     1  UNL1        0.0020
     21 C          65.1684   84.8720   14.6153 C.3     1  UNL1        0.0020
     22 C          63.8774   85.6522   16.1068 C.3     1  UNL1        0.0020
     23 C          62.8696   90.9723   10.2101 C.3     1  UNL1        0.0342
     24 C          66.0868   92.6370   11.8315 C.ar    1  UNL1        0.1535
     25 C          65.0441   92.2554   10.8230 C.ar    1  UNL1        0.0341
     26 C          63.9124   91.3539   11.2187 C.ar    1  UNL1       -0.0166
     27 C          63.8234   90.8340   12.6229 C.ar    1  UNL1        0.0268
     28 C          64.8661   91.2156   13.6313 C.ar    1  UNL1        0.1556
     29 F          64.7771   90.6957   15.0356 F       1  UNL1       -0.2028
     30 C          65.9978   92.1171   13.2357 C.ar    1  UNL1        0.1037
     31 N          67.0406   92.4986   14.2442 N.pl3   1  UNL1       -0.3529
     32 H          66.9821   92.1574   15.1659 H       1  UNL1        0.1425
     33 H          67.7833   93.0903   13.9846 H       1  UNL1        0.1425
     34 O          67.2185   93.5384   11.4358 O.3     1  UNL1       -0.4665
     35 C          67.4120   93.9114    9.9959 C.3     1  UNL1        0.2891
     36 C          68.2365   93.0365    9.0987 C.3     1  UNL1        0.4366
     37 F          69.0608   92.1616    8.2016 F       1  UNL1       -0.1663
     38 F          67.8900   93.9093    7.9291 F       1  UNL1       -0.1663
     39 F          68.5829   92.1637   10.2684 F       1  UNL1       -0.1663
     40 C          66.7812   95.1594    9.4531 C.3     1  UNL1        0.1945
     41 C          65.9385   96.8553   11.2319 C.3     1  UNL1        0.1743
     42 O          66.9379   96.4589   10.1859 O.3     1  UNL1       -0.3469
@<TRIPOS>UNITY_ATOM_ATTR
3 1
charge 1
4 1
charge -1
@<TRIPOS>BOND
     1    41    42    1
     2    42    40    1
     3    35    40    1
     4    35    34    1
     5    34    24    1
     6    24    25   ar
     7    25    26   ar
     8    26    23    1
     9     1    23    1
    10     1     2    1
    11     2     3    1
    12     3     4    2
    13     3     5    1
    14     5     6    1
    15     6    10    1
    16    10    12    1
    17    12    13    1
    18    13    14   ar
    19    14    15   ar
    20    15    16   ar
    21    16    18    1
    22    18    19    1
    23    19    20    1
    24    19    21    1
    25    19    22    1
    26    16    17   ar
    27     6     7    1
    28     7     8    1
    29    26    27   ar
    30    27    28   ar
    31    28    29    1
    32    28    30   ar
    33    30    31    1
    34    35    36    1
    35    36    37    1
    36    36    38    1
    37    36    39    1
    38    30    24   ar
    39     7     1    1
    40    17    13   ar
    41    10    11    1
    42     8     9    1
    43    31    32    1
    44    31    33    1
@<TRIPOS>MOLECULE
*****
 42 44 0 0 0
SMALL
GASTEIGER

@<TRIPOS>ATOM
      1 C          61.5546   89.4706   10.8702 C.3     1  UNL1        0.0920
      2 C          60.5671   89.7082    9.7663 C.3     1  UNL1        0.2582
      3 S          60.2658   88.6172    8.7819 S.O     1  UNL1        0.0319
      4 O          59.2784   88.8547    7.6781 O.co2   1  UNL1       -0.6812
      5 C          60.9519   87.2887    8.9015 C.3     1  UNL1        0.2736
      6 C          61.9393   87.0511   10.0053 C.3     1  UNL1        0.1416
      7 C          62.2407   88.1421   10.9897 C.3     1  UNL1        0.1353
      8 O          63.2282   87.9046   12.0936 O.3     1  UNL1       -0.3827
      9 H          63.5764   87.0017   12.0271 H       1  UNL1        0.2104
     10 N          62.6255   85.7226   10.1249 N.3     1  UNL1       -0.2886
     11 H          63.6091   85.9151   10.3141 H       1  UNL1        0.1237
     12 C          62.1712   84.7342   11.1577 C.3     1  UNL1        0.0990
     13 C          62.9467   84.5702   12.4311 C.ar    1  UNL1        0.0332
     14 C          64.0779   83.6115   12.6573 C.ar    1  UNL1        0.1187
     15 N          64.5575   83.7849   14.0679 N.ar    1  UNL1       -0.1680
     16 N          63.7227   84.8509   14.7136 N.ar    1  UNL1       -0.2497
     17 C          62.7272   85.3362   13.7020 C.ar    1  UNL1        0.0937
     18 C          63.8594   85.3448   16.1234 C.3     1  UNL1        0.1274
     19 C          63.4585   86.7484   16.4685 C.3     1  UNL1        0.0226
     20 C          64.3423   87.2698   15.3743 C.3     1  UNL1        0.0020
     21 C          62.5747   86.2269   17.5626 C.3     1  UNL1        0.0020
     22 C          63.0576   88.1520   16.8135 C.3     1  UNL1        0.0020
     23 C          61.8560   90.5616   11.8545 C.3     1  UNL1        0.0342
     24 C          65.2679   92.3698   10.9384 C.ar    1  UNL1        0.1535
     25 C          63.8731   91.8308   10.8200 C.ar    1  UNL1        0.0341
     26 C          63.2508   91.1006   11.9730 C.ar    1  UNL1       -0.0166
     27 C          64.0233   90.9094   13.2445 C.ar    1  UNL1        0.0268
     28 C          65.4181   91.4483   13.3629 C.ar    1  UNL1        0.1556
     29 F          66.1906   91.2571   14.6344 F       1  UNL1       -0.2028
     30 C          66.0404   92.1786   12.2098 C.ar    1  UNL1        0.1037
     31 N          67.4352   92.7176   12.3283 N.pl3   1  UNL1       -0.3529
     32 H          67.9422   92.5920   13.1629 H       1  UNL1        0.1425
     33 H          67.8437   93.1968   11.5716 H       1  UNL1        0.1425
     34 O          65.8902   93.1000    9.7853 O.3     1  UNL1       -0.4665
     35 C          66.5256   94.4414   10.0021 C.3     1  UNL1        0.2891
     36 C          65.7492   95.5409   10.6643 C.3     1  UNL1        0.4366
     37 F          64.9728   96.6403   11.3264 F       1  UNL1       -0.1663
     38 F          66.5867   95.3884   11.8993 F       1  UNL1       -0.1663
     39 F          64.9117   95.6933    9.4293 F       1  UNL1       -0.1663
     40 C          67.9373   94.6834    9.5566 C.3     1  UNL1        0.1945
     41 C          68.8971   92.3480    8.9441 C.3     1  UNL1        0.1743
     42 O          68.9754   93.6163    9.7412 O.3     1  UNL1       -0.3469
@<TRIPOS>UNITY_ATOM_ATTR
3 1
charge 1
4 1
charge -1
@<TRIPOS>BOND
     1    41    42    1
     2    42    40    1
     3    35    40    1
     4    35    34    1
     5    34    24    1
     6    24    25   ar
     7    25    26   ar
     8    26    23    1
     9     1    23    1
    10     1     2    1
    11     2     3    1
    12     3     4    2
    13     3     5    1
    14     5     6    1
    15     6    10    1
    16    10    12    1
    17    12    13    1
    18    13    14   ar
    19    14    15   ar
    20    15    16   ar
    21    16    18    1
    22    18    19    1
    23    19    20    1
    24    19    21    1
    25    19    22    1
    26    16    17   ar
    27     6     7    1
    28     7     8    1
    29    26    27   ar
    30    27    28   ar
    31    28    29    1
    32    28    30   ar
    33    30    31    1
    34    35    36    1
    35    36    37    1
    36    36    38    1
    37    36    39    1
    38    30    24   ar
    39     7     1    1
    40    17    13   ar
    41    10    11    1
    42     8     9    1
    43    31    32    1
    44    31    33    1
@<TRIPOS>MOLECULE
*****
 42 44 0 0 0
SMALL
GASTEIGER

@<TRIPOS>ATOM
      1 C          60.8267   87.5660   10.5369 C.3     1  UNL1        0.0920
      2 C          59.6826   87.7815   11.4829 C.3     1  UNL1        0.2582
      3 S          59.3784   89.1600   11.9902 S.O     1  UNL1        0.0319
      4 O          58.2344   89.3755   12.9362 O.co2   1  UNL1       -0.6812
      5 C          60.2181   90.3229   11.5514 C.3     1  UNL1        0.2736
      6 C          61.3620   90.1074   10.6054 C.3     1  UNL1        0.1416
      7 C          61.6663   88.7290   10.0982 C.3     1  UNL1        0.1353
      8 O          62.8103   88.5135    9.1521 O.3     1  UNL1       -0.3827
      9 H          63.2453   89.3616    8.9723 H       1  UNL1        0.2104
     10 N          62.2017   91.2704   10.1666 N.3     1  UNL1       -0.2886
     11 H          61.8420   92.0927   10.6511 H       1  UNL1        0.1237
     12 C          63.6850   91.2508   10.3893 C.3     1  UNL1        0.0990
     13 C          64.2434   91.5541   11.7481 C.ar    1  UNL1        0.0332
     14 C          63.7710   90.9693   13.0460 C.ar    1  UNL1        0.1187
     15 N          64.6079   91.5491   14.1476 N.ar    1  UNL1       -0.1680
     16 N          65.5976   92.4923   13.5303 N.ar    1  UNL1       -0.2497
     17 C          65.3723   92.4953   12.0474 C.ar    1  UNL1        0.0937
     18 C          66.6311   93.2920   14.2668 C.3     1  UNL1        0.1274
     19 C          67.6027   92.6033   15.1787 C.3     1  UNL1        0.0226
     20 C          68.4538   92.2407   13.9979 C.3     1  UNL1        0.0020
     21 C          66.7516   92.9658   16.3594 C.3     1  UNL1        0.0020
     22 C          68.5743   91.9145   16.0905 C.3     1  UNL1        0.0020
     23 C          61.1309   86.1876   10.0297 C.3     1  UNL1        0.0342
     24 C          63.5991   84.8617   12.8404 C.ar    1  UNL1        0.1535
     25 C          62.6155   85.7287   12.1119 C.ar    1  UNL1        0.0341
     26 C          62.1146   85.3205   10.7582 C.ar    1  UNL1       -0.0166
     27 C          62.5973   84.0453   10.1330 C.ar    1  UNL1        0.0268
     28 C          63.5809   83.1783   10.8616 C.ar    1  UNL1        0.1556
     29 F          64.0636   81.9031   10.2364 F       1  UNL1       -0.2028
     30 C          64.0818   83.5865   12.2152 C.ar    1  UNL1        0.1037
     31 N          65.0655   82.7194   12.9438 N.pl3   1  UNL1       -0.3529
     32 H          65.3823   81.8825   12.5334 H       1  UNL1        0.1425
     33 H          65.3943   82.9873   13.8322 H       1  UNL1        0.1425
     34 O          64.1001   85.2699   14.1941 O.3     1  UNL1       -0.4665
     35 C          63.2102   85.1376   15.3943 C.3     1  UNL1        0.2891
     36 C          63.2122   86.2027   16.4506 C.3     1  UNL1        0.4366
     37 F          63.2142   87.2678   17.5068 F       1  UNL1       -0.1663
     38 F          64.1497   87.0264   15.6183 F       1  UNL1       -0.1663
     39 F          62.2748   85.3791   17.2828 F       1  UNL1       -0.1663
     40 C          62.3184   83.9402   15.5384 C.3     1  UNL1        0.1945
     41 C          61.9195   81.6467   14.3847 C.3     1  UNL1        0.1743
     42 O          62.8160   82.5821   15.1406 O.3     1  UNL1       -0.3469
@<TRIPOS>UNITY_ATOM_ATTR
3 1
charge 1
4 1
charge -1
@<TRIPOS>BOND
     1    41    42    1
     2    42    40    1
     3    35    40    1
     4    35    34    1
     5    34    24    1
     6    24    25   ar
     7    25    26   ar
     8    26    23    1
     9     1    23    1
    10     1     2    1
    11     2     3    1
    12     3     4    2
    13     3     5    1
    14     5     6    1
    15     6    10    1
    16    10    12    1
    17    12    13    1
    18    13    14   ar
    19    14    15   ar
    20    15    16   ar
    21    16    18    1
    22    18    19    1
    23    19    20    1
    24    19    21    1
    25    19    22    1
    26    16    17   ar
    27     6     7    1
    28     7     8    1
    29    26    27   ar
    30    27    28   ar
    31    28    29    1
    32    28    30   ar
    33    30    31    1
    34    35    36    1
    35    36    37    1
    36    36    38    1
    37    36    39    1
    38    30    24   ar
    39     7     1    1
    40    17    13   ar
    41    10    11    1
    42     8     9    1
    43    31    32    1
    44    31    33    1
