@<TRIPOS>MOLECULE
*****
 33 37 0 0 0
SMALL
GASTEIGER

@<TRIPOS>ATOM
      1 O          64.2408   88.8689   13.1917 O.3     1  UNL1       -0.3822
      2 C          63.8681   88.7832   14.6420 C.3     1  UNL1        0.1164
      3 C          63.5231   88.1906   15.9761 C.3     1  UNL1        0.0487
      4 C          63.2276   89.0876   17.1415 C.3     1  UNL1        0.0714
      5 N          63.2770   90.5772   16.9728 N.3     1  UNL1       -0.2969
      6 C          63.6220   91.1698   15.6387 C.3     1  UNL1        0.0790
      7 C          63.9175   90.2729   14.4734 C.3     1  UNL1        0.1048
      8 H          64.3306   87.9743   12.8275 H       1  UNL1        0.2107
      9 H          63.9677   90.9260   17.6374 H       1  UNL1        0.1233
     10 C          63.9480   87.3233   14.3071 C.ar    1  UNL1        0.0046
     11 C          64.7038   86.3883   15.2042 C.ar    1  UNL1        0.0004
     12 C          64.7838   84.9284   14.8693 C.ar    1  UNL1        0.0317
     13 C          64.1080   84.4034   13.6373 C.ar    1  UNL1        0.1674
     14 F          64.1881   82.9435   13.3024 F       1  UNL1       -0.2018
     15 C          63.3523   85.3383   12.7402 C.ar    1  UNL1        0.1671
     16 F          62.6765   84.8134   11.5083 F       1  UNL1       -0.2018
     17 C          63.2723   86.7983   13.0751 C.ar    1  UNL1        0.0299
     18 C          64.2625   90.8655   13.1393 C.ar    1  UNL1        0.1640
     19 O          63.3378   90.9919   11.9650 O.2     1  UNL1       -0.3571
     20 N          64.0966   91.6403   10.8453 N.ar    1  UNL1       -0.0768
     21 C          65.4902   91.9146   11.3275 C.ar    1  UNL1        0.1287
     22 C          65.5927   91.4358   12.7453 C.ar    1  UNL1        0.0883
     23 BR         66.8115   91.5135   13.6163 Br      1  UNL1       -0.0444
     24 C          66.5885   92.5553   10.5317 C.ar    1  UNL1        0.0214
     25 C          67.8066   91.7625   10.1608 C.ar    1  UNL1        0.0016
     26 C          68.9049   92.4032    9.3650 C.ar    1  UNL1        0.0001
     27 C          68.7851   93.8367    8.9401 C.ar    1  UNL1        0.0000
     28 C          67.5669   94.6296    9.3110 C.ar    1  UNL1        0.0000
     29 C          67.4471   96.0631    8.8860 C.ar    1  UNL1        0.0000
     30 C          66.2290   96.8560    9.2569 C.ar    1  UNL1        0.0000
     31 C          65.1307   96.2153   10.0527 C.ar    1  UNL1        0.0000
     32 C          65.2505   94.7818   10.4777 C.ar    1  UNL1        0.0000
     33 C          66.4686   93.9889   10.1068 C.ar    1  UNL1        0.0016
@<TRIPOS>BOND
     1     2     1    1
     2     2    10    1
     3    10    11   ar
     4    11    12   ar
     5    12    13   ar
     6    13    14    1
     7    13    15   ar
     8    15    16    1
     9    15    17   ar
    10     2     3    1
    11     3     4    1
    12     4     5    1
    13     5     6    1
    14     6     7    1
    15     7    18    1
    16    18    19   ar
    17    19    20   ar
    18    20    21   ar
    19    21    24    1
    20    24    25   ar
    21    25    26   ar
    22    26    27   ar
    23    27    28   ar
    24    28    29   ar
    25    29    30   ar
    26    30    31   ar
    27    31    32   ar
    28    32    33   ar
    29    21    22   ar
    30    22    23    1
    31     7     2    1
    32    22    18   ar
    33    17    10   ar
    34    33    24   ar
    35    33    28   ar
    36     1     8    1
    37     5     9    1
@<TRIPOS>MOLECULE
*****
 33 37 0 0 0
SMALL
GASTEIGER

@<TRIPOS>ATOM
      1 O          62.7498   87.5116   11.4082 O.3     1  UNL1       -0.3822
      2 C          61.6590   87.1342   10.4504 C.3     1  UNL1        0.1164
      3 C          60.8035   86.2953    9.5479 C.3     1  UNL1        0.0487
      4 C          59.6491   86.9162    8.8185 C.3     1  UNL1        0.0714
      5 N          59.3502   88.3758    8.9916 N.3     1  UNL1       -0.2969
      6 C          60.2057   89.2147    9.8941 C.3     1  UNL1        0.0790
      7 C          61.3600   88.5939   10.6234 C.3     1  UNL1        0.1048
      8 H          63.2872   86.7299   11.6105 H       1  UNL1        0.2107
      9 H          58.3960   88.4410    9.3461 H       1  UNL1        0.1233
     10 C          62.3366   85.8056   10.6099 C.ar    1  UNL1        0.0046
     11 C          62.9376   85.1222    9.4174 C.ar    1  UNL1        0.0004
     12 C          63.6154   83.7936    9.5769 C.ar    1  UNL1        0.0317
     13 C          63.6921   83.1483   10.9289 C.ar    1  UNL1        0.1674
     14 F          64.3698   81.8197   11.0883 F       1  UNL1       -0.2018
     15 C          63.0911   83.8316   12.1213 C.ar    1  UNL1        0.1671
     16 F          63.1678   83.1863   13.4732 F       1  UNL1       -0.2018
     17 C          62.4134   85.1602   11.9618 C.ar    1  UNL1        0.0299
     18 C          62.2155   89.4327   11.5259 C.ar    1  UNL1        0.1640
     19 O          62.3226   89.2970   13.0159 O.2     1  UNL1       -0.3571
     20 N          63.2874   90.3350   13.5076 N.ar    1  UNL1       -0.0768
     21 C          63.7766   91.1122   12.3216 C.ar    1  UNL1        0.1287
     22 C          63.1141   90.5545   11.0968 C.ar    1  UNL1        0.0883
     23 BR         63.3149   91.0344    9.6899 Br      1  UNL1       -0.0444
     24 C          64.7562   92.2476   12.3545 C.ar    1  UNL1        0.0214
     25 C          64.9077   93.1423   11.1602 C.ar    1  UNL1        0.0016
     26 C          65.8873   94.2778   11.1931 C.ar    1  UNL1        0.0001
     27 C          66.7155   94.5185   12.4204 C.ar    1  UNL1        0.0000
     28 C          66.5640   93.6238   13.6148 C.ar    1  UNL1        0.0000
     29 C          67.3921   93.8645   14.8421 C.ar    1  UNL1        0.0000
     30 C          67.2405   92.9698   16.0364 C.ar    1  UNL1        0.0000
     31 C          66.2609   91.8343   16.0035 C.ar    1  UNL1        0.0000
     32 C          65.4328   91.5936   14.7762 C.ar    1  UNL1        0.0000
     33 C          65.5843   92.4883   13.5819 C.ar    1  UNL1        0.0016
@<TRIPOS>BOND
     1     2     1    1
     2     2    10    1
     3    10    11   ar
     4    11    12   ar
     5    12    13   ar
     6    13    14    1
     7    13    15   ar
     8    15    16    1
     9    15    17   ar
    10     2     3    1
    11     3     4    1
    12     4     5    1
    13     5     6    1
    14     6     7    1
    15     7    18    1
    16    18    19   ar
    17    19    20   ar
    18    20    21   ar
    19    21    24    1
    20    24    25   ar
    21    25    26   ar
    22    26    27   ar
    23    27    28   ar
    24    28    29   ar
    25    29    30   ar
    26    30    31   ar
    27    31    32   ar
    28    32    33   ar
    29    21    22   ar
    30    22    23    1
    31     7     2    1
    32    22    18   ar
    33    17    10   ar
    34    33    24   ar
    35    33    28   ar
    36     1     8    1
    37     5     9    1
@<TRIPOS>MOLECULE
*****
 33 37 0 0 0
SMALL
GASTEIGER

@<TRIPOS>ATOM
      1 O          64.2209   89.2160   13.2633 O.3     1  UNL1       -0.3822
      2 C          63.7259   90.1469   12.1964 C.3     1  UNL1        0.1164
      3 C          63.5357   91.4030   11.3989 C.3     1  UNL1        0.0487
      4 C          62.6396   91.3992   10.1960 C.3     1  UNL1        0.0714
      5 N          61.9336   90.1394    9.7905 N.3     1  UNL1       -0.2969
      6 C          62.1238   88.8833   10.5881 C.3     1  UNL1        0.0790
      7 C          63.0199   88.8870   11.7909 C.3     1  UNL1        0.1048
      8 H          64.8179   89.6953   13.8590 H       1  UNL1        0.2107
      9 H          62.2289   89.9302    8.8369 H       1  UNL1        0.1233
     10 C          64.6037   91.0835   12.9723 C.ar    1  UNL1        0.0046
     11 C          64.9024   90.8084   14.4163 C.ar    1  UNL1        0.0004
     12 C          65.7802   91.7450   15.1923 C.ar    1  UNL1        0.0317
     13 C          66.3594   92.9567   14.5243 C.ar    1  UNL1        0.1674
     14 F          67.2372   93.8933   15.3002 F       1  UNL1       -0.2018
     15 C          66.0607   93.2318   13.0803 C.ar    1  UNL1        0.1671
     16 F          66.6399   94.4436   12.4122 F       1  UNL1       -0.2018
     17 C          65.1829   92.2952   12.3043 C.ar    1  UNL1        0.0299
     18 C          63.2101   87.6309   12.5884 C.ar    1  UNL1        0.1640
     19 O          64.0250   87.4964   13.8405 O.2     1  UNL1       -0.3571
     20 N          63.9373   86.0711   14.2997 N.ar    1  UNL1       -0.0768
     21 C          63.0682   85.3248   13.3314 C.ar    1  UNL1        0.1287
     22 C          62.6188   86.2888   12.2738 C.ar    1  UNL1        0.0883
     23 BR         61.7334   85.9672   11.1064 Br      1  UNL1       -0.0444
     24 C          62.7112   83.8698   13.4075 C.ar    1  UNL1        0.0214
     25 C          62.0058   83.3329   14.6175 C.ar    1  UNL1        0.0016
     26 C          61.6488   81.8780   14.6935 C.ar    1  UNL1        0.0001
     27 C          61.9972   80.9600   13.5595 C.ar    1  UNL1        0.0000
     28 C          62.7026   81.4969   12.3495 C.ar    1  UNL1        0.0000
     29 C          63.0510   80.5790   11.2155 C.ar    1  UNL1        0.0000
     30 C          63.7564   81.1159   10.0055 C.ar    1  UNL1        0.0000
     31 C          64.1134   82.5708    9.9295 C.ar    1  UNL1        0.0000
     32 C          63.7650   83.4888   11.0635 C.ar    1  UNL1        0.0000
     33 C          63.0596   82.9519   12.2734 C.ar    1  UNL1        0.0016
@<TRIPOS>BOND
     1     2     1    1
     2     2    10    1
     3    10    11   ar
     4    11    12   ar
     5    12    13   ar
     6    13    14    1
     7    13    15   ar
     8    15    16    1
     9    15    17   ar
    10     2     3    1
    11     3     4    1
    12     4     5    1
    13     5     6    1
    14     6     7    1
    15     7    18    1
    16    18    19   ar
    17    19    20   ar
    18    20    21   ar
    19    21    24    1
    20    24    25   ar
    21    25    26   ar
    22    26    27   ar
    23    27    28   ar
    24    28    29   ar
    25    29    30   ar
    26    30    31   ar
    27    31    32   ar
    28    32    33   ar
    29    21    22   ar
    30    22    23    1
    31     7     2    1
    32    22    18   ar
    33    17    10   ar
    34    33    24   ar
    35    33    28   ar
    36     1     8    1
    37     5     9    1
@<TRIPOS>MOLECULE
*****
 33 37 0 0 0
SMALL
GASTEIGER

@<TRIPOS>ATOM
      1 O          63.5548   88.7566   12.2468 O.3     1  UNL1       -0.3822
      2 C          62.5483   89.7517   11.7503 C.3     1  UNL1        0.1164
      3 C          61.9324   91.0679   11.3785 C.3     1  UNL1        0.0487
      4 C          60.5410   91.1137   10.8198 C.3     1  UNL1        0.0714
      5 N          59.7656   89.8434   10.6328 N.3     1  UNL1       -0.2969
      6 C          60.3816   88.5272   11.0046 C.3     1  UNL1        0.0790
      7 C          61.7728   88.4813   11.5633 C.3     1  UNL1        0.1048
      8 H          64.3601   89.2216   12.5230 H       1  UNL1        0.2107
      9 H          59.5264   89.7874    9.6428 H       1  UNL1        0.1233
     10 C          63.6732   90.6764   12.1097 C.ar    1  UNL1        0.0046
     11 C          64.1933   91.6536   11.0973 C.ar    1  UNL1        0.0004
     12 C          65.3183   92.5784   11.4567 C.ar    1  UNL1        0.0317
     13 C          65.9231   92.5261   12.8283 C.ar    1  UNL1        0.1674
     14 F          67.0481   93.4510   13.1877 F       1  UNL1       -0.2018
     15 C          65.4030   91.5491   13.8406 C.ar    1  UNL1        0.1671
     16 F          66.0079   91.4968   15.2123 F       1  UNL1       -0.2018
     17 C          64.2781   90.6242   13.4813 C.ar    1  UNL1        0.0299
     18 C          62.3887   87.1651   11.9350 C.ar    1  UNL1        0.1640
     19 O          63.2115   86.8910   13.1589 O.2     1  UNL1       -0.3571
     20 N          63.6213   85.4484   13.1284 N.ar    1  UNL1       -0.0768
     21 C          63.0518   84.8309   11.8857 C.ar    1  UNL1        0.1287
     22 C          62.2900   85.8919   11.1482 C.ar    1  UNL1        0.0883
     23 BR         61.5580   85.7114    9.8514 Br      1  UNL1       -0.0444
     24 C          63.2153   83.4031   11.4560 C.ar    1  UNL1        0.0214
     25 C          63.8923   83.0839   10.1561 C.ar    1  UNL1        0.0016
     26 C          64.0558   81.6561    9.7264 C.ar    1  UNL1        0.0001
     27 C          63.5423   80.5475   10.5966 C.ar    1  UNL1        0.0000
     28 C          62.8653   80.8666   11.8966 C.ar    1  UNL1        0.0000
     29 C          62.3518   79.7580   12.7668 C.ar    1  UNL1        0.0000
     30 C          61.6749   80.0772   14.0667 C.ar    1  UNL1        0.0000
     31 C          61.5113   81.5050   14.4964 C.ar    1  UNL1        0.0000
     32 C          62.0248   82.6136   13.6262 C.ar    1  UNL1        0.0000
     33 C          62.7018   82.2944   12.3263 C.ar    1  UNL1        0.0016
@<TRIPOS>BOND
     1     2     1    1
     2     2    10    1
     3    10    11   ar
     4    11    12   ar
     5    12    13   ar
     6    13    14    1
     7    13    15   ar
     8    15    16    1
     9    15    17   ar
    10     2     3    1
    11     3     4    1
    12     4     5    1
    13     5     6    1
    14     6     7    1
    15     7    18    1
    16    18    19   ar
    17    19    20   ar
    18    20    21   ar
    19    21    24    1
    20    24    25   ar
    21    25    26   ar
    22    26    27   ar
    23    27    28   ar
    24    28    29   ar
    25    29    30   ar
    26    30    31   ar
    27    31    32   ar
    28    32    33   ar
    29    21    22   ar
    30    22    23    1
    31     7     2    1
    32    22    18   ar
    33    17    10   ar
    34    33    24   ar
    35    33    28   ar
    36     1     8    1
    37     5     9    1
@<TRIPOS>MOLECULE
*****
 33 37 0 0 0
SMALL
GASTEIGER

@<TRIPOS>ATOM
      1 O          64.1683   89.7622   12.7513 O.3     1  UNL1       -0.3822
      2 C          64.2299   90.4464   14.0846 C.3     1  UNL1        0.1164
      3 C          64.5727   91.4634   15.1326 C.3     1  UNL1        0.0487
      4 C          64.0844   91.2845   16.5395 C.3     1  UNL1        0.0714
      5 N          63.2533   90.0886   16.8986 N.3     1  UNL1       -0.2969
      6 C          62.9105   89.0715   15.8507 C.3     1  UNL1        0.0790
      7 C          63.3987   89.2504   14.4438 C.3     1  UNL1        0.1048
      8 H          64.6629   90.2815   12.0982 H       1  UNL1        0.2107
      9 H          62.3698   90.4432   17.2649 H       1  UNL1        0.1233
     10 C          65.0396   91.4047   13.2626 C.ar    1  UNL1        0.0046
     11 C          66.3565   91.9067   13.7764 C.ar    1  UNL1        0.0004
     12 C          67.1662   92.8651   12.9543 C.ar    1  UNL1        0.0317
     13 C          66.6592   93.3214   11.6184 C.ar    1  UNL1        0.1674
     14 F          67.4690   94.2798   10.7963 F       1  UNL1       -0.2018
     15 C          65.3424   92.8195   11.1046 C.ar    1  UNL1        0.1671
     16 F          64.8353   93.2758    9.7687 F       1  UNL1       -0.2018
     17 C          64.5326   91.8611   11.9267 C.ar    1  UNL1        0.0299
     18 C          63.0559   88.2334   13.3959 C.ar    1  UNL1        0.1640
     19 O          62.1519   88.4506   12.2188 O.2     1  UNL1       -0.3571
     20 N          62.0943   87.1720   11.4365 N.ar    1  UNL1       -0.0768
     21 C          62.9626   86.1646   12.1302 C.ar    1  UNL1        0.1287
     22 C          63.5569   86.8206   13.3411 C.ar    1  UNL1        0.0883
     23 BR         64.4887   86.1768   14.3247 Br      1  UNL1       -0.0444
     24 C          63.1957   84.7497   11.6901 C.ar    1  UNL1        0.0214
     25 C          63.8173   84.4727   10.3534 C.ar    1  UNL1        0.0016
     26 C          64.0504   83.0578    9.9134 C.ar    1  UNL1        0.0001
     27 C          63.6618   81.9198   10.8100 C.ar    1  UNL1        0.0000
     28 C          63.0401   82.1968   12.1468 C.ar    1  UNL1        0.0000
     29 C          62.6515   81.0588   13.0434 C.ar    1  UNL1        0.0000
     30 C          62.0299   81.3358   14.3801 C.ar    1  UNL1        0.0000
     31 C          61.7968   82.7507   14.8202 C.ar    1  UNL1        0.0000
     32 C          62.1854   83.8887   13.9235 C.ar    1  UNL1        0.0000
     33 C          62.8070   83.6117   12.5868 C.ar    1  UNL1        0.0016
@<TRIPOS>BOND
     1     2     1    1
     2     2    10    1
     3    10    11   ar
     4    11    12   ar
     5    12    13   ar
     6    13    14    1
     7    13    15   ar
     8    15    16    1
     9    15    17   ar
    10     2     3    1
    11     3     4    1
    12     4     5    1
    13     5     6    1
    14     6     7    1
    15     7    18    1
    16    18    19   ar
    17    19    20   ar
    18    20    21   ar
    19    21    24    1
    20    24    25   ar
    21    25    26   ar
    22    26    27   ar
    23    27    28   ar
    24    28    29   ar
    25    29    30   ar
    26    30    31   ar
    27    31    32   ar
    28    32    33   ar
    29    21    22   ar
    30    22    23    1
    31     7     2    1
    32    22    18   ar
    33    17    10   ar
    34    33    24   ar
    35    33    28   ar
    36     1     8    1
    37     5     9    1
@<TRIPOS>MOLECULE
*****
 33 37 0 0 0
SMALL
GASTEIGER

@<TRIPOS>ATOM
      1 O          64.8951   91.0396   11.7238 O.3     1  UNL1       -0.3822
      2 C          65.4001   91.8973   12.8459 C.3     1  UNL1        0.1164
      3 C          66.1316   92.9927   13.5636 C.3     1  UNL1        0.0487
      4 C          66.0356   93.1059   15.0562 C.3     1  UNL1        0.0714
      5 N          65.2081   92.1238   15.8312 N.3     1  UNL1       -0.2969
      6 C          64.4766   91.0285   15.1135 C.3     1  UNL1        0.0790
      7 C          64.5726   90.9152   13.6209 C.3     1  UNL1        0.1048
      8 H          65.2443   91.3705   10.8815 H       1  UNL1        0.2107
      9 H          64.5063   92.6644   16.3368 H       1  UNL1        0.1233
     10 C          66.0523   92.5816   11.6813 C.ar    1  UNL1        0.0046
     11 C          65.4891   93.8690   11.1564 C.ar    1  UNL1        0.0004
     12 C          66.1413   94.5534    9.9918 C.ar    1  UNL1        0.0317
     13 C          67.3566   93.9503    9.3520 C.ar    1  UNL1        0.1674
     14 F          68.0087   94.6346    8.1873 F       1  UNL1       -0.2018
     15 C          67.9197   92.6629    9.8768 C.ar    1  UNL1        0.1671
     16 F          69.1350   92.0598    9.2370 F       1  UNL1       -0.2018
     17 C          67.2676   91.9786   11.0414 C.ar    1  UNL1        0.0299
     18 C          63.8411   89.8199   12.9032 C.ar    1  UNL1        0.1640
     19 O          63.8832   88.3601   13.2455 O.2     1  UNL1       -0.3571
     20 N          63.0072   87.6300   12.2710 N.ar    1  UNL1       -0.0768
     21 C          62.4236   88.6386   11.3265 C.ar    1  UNL1        0.1287
     22 C          62.9390   89.9920   11.7172 C.ar    1  UNL1        0.0883
     23 BR         62.6101   91.2898   11.0407 Br      1  UNL1       -0.0444
     24 C          61.4888   88.3453   10.1907 C.ar    1  UNL1        0.0214
     25 C          60.3177   89.2460    9.9315 C.ar    1  UNL1        0.0016
     26 C          59.3829   88.9527    8.7956 C.ar    1  UNL1        0.0001
     27 C          59.6192   87.7587    7.9190 C.ar    1  UNL1        0.0000
     28 C          60.7904   86.8580    8.1781 C.ar    1  UNL1        0.0000
     29 C          61.0268   85.6640    7.3015 C.ar    1  UNL1        0.0000
     30 C          62.1979   84.7634    7.5606 C.ar    1  UNL1        0.0000
     31 C          63.1327   85.0567    8.6965 C.ar    1  UNL1        0.0000
     32 C          62.8964   86.2506    9.5731 C.ar    1  UNL1        0.0000
     33 C          61.7252   87.1513    9.3140 C.ar    1  UNL1        0.0016
@<TRIPOS>BOND
     1     2     1    1
     2     2    10    1
     3    10    11   ar
     4    11    12   ar
     5    12    13   ar
     6    13    14    1
     7    13    15   ar
     8    15    16    1
     9    15    17   ar
    10     2     3    1
    11     3     4    1
    12     4     5    1
    13     5     6    1
    14     6     7    1
    15     7    18    1
    16    18    19   ar
    17    19    20   ar
    18    20    21   ar
    19    21    24    1
    20    24    25   ar
    21    25    26   ar
    22    26    27   ar
    23    27    28   ar
    24    28    29   ar
    25    29    30   ar
    26    30    31   ar
    27    31    32   ar
    28    32    33   ar
    29    21    22   ar
    30    22    23    1
    31     7     2    1
    32    22    18   ar
    33    17    10   ar
    34    33    24   ar
    35    33    28   ar
    36     1     8    1
    37     5     9    1
@<TRIPOS>MOLECULE
*****
 33 37 0 0 0
SMALL
GASTEIGER

@<TRIPOS>ATOM
      1 O          64.5739   88.0142   13.7297 O.3     1  UNL1       -0.3822
      2 C          63.9796   88.8685   14.8100 C.3     1  UNL1        0.1164
      3 C          63.4756   90.0855   15.5275 C.3     1  UNL1        0.0487
      4 C          62.9182   89.9613   16.9145 C.3     1  UNL1        0.0714
      5 N          62.8648   88.6202   17.5841 N.3     1  UNL1       -0.2969
      6 C          63.3688   87.4031   16.8666 C.3     1  UNL1        0.0790
      7 C          63.9262   87.5273   15.4796 C.3     1  UNL1        0.1048
      8 H          64.7989   88.5685   12.9662 H       1  UNL1        0.2107
      9 H          61.8864   88.4435   17.8119 H       1  UNL1        0.1233
     10 C          64.2394   89.9130   13.7653 C.ar    1  UNL1        0.0046
     11 C          65.3090   90.9419   13.9832 C.ar    1  UNL1        0.0004
     12 C          65.5688   91.9865   12.9385 C.ar    1  UNL1        0.0317
     13 C          64.7590   92.0022   11.6759 C.ar    1  UNL1        0.1674
     14 F          65.0188   93.0467   10.6313 F       1  UNL1       -0.2018
     15 C          63.6894   90.9734   11.4581 C.ar    1  UNL1        0.1671
     16 F          62.8796   90.9890   10.1955 F       1  UNL1       -0.2018
     17 C          63.4296   89.9288   12.5028 C.ar    1  UNL1        0.0299
     18 C          64.4302   86.3103   14.7621 C.ar    1  UNL1        0.1640
     19 O          65.7774   85.6755   14.9418 O.2     1  UNL1       -0.3571
     20 N          65.8553   84.4873   14.0297 N.ar    1  UNL1       -0.0768
     21 C          64.5563   84.3876   13.2862 C.ar    1  UNL1        0.1287
     22 C          63.6756   85.5143   13.7389 C.ar    1  UNL1        0.0883
     23 BR         62.2844   85.7957   13.2536 Br      1  UNL1       -0.0444
     24 C          64.2005   83.3445   12.2688 C.ar    1  UNL1        0.0214
     25 C          64.6120   83.5219   10.8373 C.ar    1  UNL1        0.0016
     26 C          64.2563   82.4787    9.8198 C.ar    1  UNL1        0.0001
     27 C          63.4890   81.2582   10.2338 C.ar    1  UNL1        0.0000
     28 C          63.0774   81.0807   11.6654 C.ar    1  UNL1        0.0000
     29 C          62.3101   79.8601   12.0793 C.ar    1  UNL1        0.0000
     30 C          61.8986   79.6827   13.5108 C.ar    1  UNL1        0.0000
     31 C          62.2544   80.7259   14.5283 C.ar    1  UNL1        0.0000
     32 C          63.0216   81.9465   14.1143 C.ar    1  UNL1        0.0000
     33 C          63.4332   82.1239   12.6828 C.ar    1  UNL1        0.0016
@<TRIPOS>BOND
     1     2     1    1
     2     2    10    1
     3    10    11   ar
     4    11    12   ar
     5    12    13   ar
     6    13    14    1
     7    13    15   ar
     8    15    16    1
     9    15    17   ar
    10     2     3    1
    11     3     4    1
    12     4     5    1
    13     5     6    1
    14     6     7    1
    15     7    18    1
    16    18    19   ar
    17    19    20   ar
    18    20    21   ar
    19    21    24    1
    20    24    25   ar
    21    25    26   ar
    22    26    27   ar
    23    27    28   ar
    24    28    29   ar
    25    29    30   ar
    26    30    31   ar
    27    31    32   ar
    28    32    33   ar
    29    21    22   ar
    30    22    23    1
    31     7     2    1
    32    22    18   ar
    33    17    10   ar
    34    33    24   ar
    35    33    28   ar
    36     1     8    1
    37     5     9    1
@<TRIPOS>MOLECULE
*****
 33 37 0 0 0
SMALL
GASTEIGER

@<TRIPOS>ATOM
      1 O          63.2829   85.9009   12.5880 O.3     1  UNL1       -0.3822
      2 C          62.5938   85.9238   11.2558 C.3     1  UNL1        0.1164
      3 C          61.9480   85.4325    9.9943 C.3     1  UNL1        0.0487
      4 C          61.4170   86.4141    8.9921 C.3     1  UNL1        0.0714
      5 N          61.5317   87.8871    9.2514 N.3     1  UNL1       -0.2969
      6 C          62.1776   88.3784   10.5130 C.3     1  UNL1        0.0790
      7 C          62.7086   87.3968   11.5151 C.3     1  UNL1        0.1048
      8 H          63.4344   84.9816   12.8578 H       1  UNL1        0.2107
      9 H          60.5835   88.2627    9.2404 H       1  UNL1        0.1233
     10 C          62.7183   84.4429   11.4591 C.ar    1  UNL1        0.0046
     11 C          63.3060   83.5844   10.3785 C.ar    1  UNL1        0.0004
     12 C          63.4305   82.1034   10.5817 C.ar    1  UNL1        0.0317
     13 C          62.9674   81.4810   11.8655 C.ar    1  UNL1        0.1674
     14 F          63.0919   80.0001   12.0687 F       1  UNL1       -0.2018
     15 C          62.3798   82.3395   12.9461 C.ar    1  UNL1        0.1671
     16 F          61.9166   81.7171   14.2299 F       1  UNL1       -0.2018
     17 C          62.2552   83.8205   12.7429 C.ar    1  UNL1        0.0299
     18 C          63.3544   87.8881   12.7767 C.ar    1  UNL1        0.1640
     19 O          63.9776   87.0322   13.8393 O.2     1  UNL1       -0.3571
     20 N          64.4987   87.9368   14.9164 N.ar    1  UNL1       -0.0768
     21 C          64.1977   89.3516   14.5195 C.ar    1  UNL1        0.1287
     22 C          63.4904   89.3215   13.1971 C.ar    1  UNL1        0.0883
     23 BR         63.0045   90.5153   12.4297 Br      1  UNL1       -0.0444
     24 C          64.5432   90.5808   15.3069 C.ar    1  UNL1        0.0214
     25 C          63.6419   91.0399   16.4144 C.ar    1  UNL1        0.0016
     26 C          63.9874   92.2691   17.2018 C.ar    1  UNL1        0.0001
     27 C          65.2342   93.0390   16.8815 C.ar    1  UNL1        0.0000
     28 C          66.1356   92.5799   15.7738 C.ar    1  UNL1        0.0000
     29 C          67.3824   93.3498   15.4535 C.ar    1  UNL1        0.0000
     30 C          68.2836   92.8906   14.3459 C.ar    1  UNL1        0.0000
     31 C          67.9381   91.6615   13.5586 C.ar    1  UNL1        0.0000
     32 C          66.6913   90.8916   13.8789 C.ar    1  UNL1        0.0000
     33 C          65.7901   91.3507   14.9865 C.ar    1  UNL1        0.0016
@<TRIPOS>BOND
     1     2     1    1
     2     2    10    1
     3    10    11   ar
     4    11    12   ar
     5    12    13   ar
     6    13    14    1
     7    13    15   ar
     8    15    16    1
     9    15    17   ar
    10     2     3    1
    11     3     4    1
    12     4     5    1
    13     5     6    1
    14     6     7    1
    15     7    18    1
    16    18    19   ar
    17    19    20   ar
    18    20    21   ar
    19    21    24    1
    20    24    25   ar
    21    25    26   ar
    22    26    27   ar
    23    27    28   ar
    24    28    29   ar
    25    29    30   ar
    26    30    31   ar
    27    31    32   ar
    28    32    33   ar
    29    21    22   ar
    30    22    23    1
    31     7     2    1
    32    22    18   ar
    33    17    10   ar
    34    33    24   ar
    35    33    28   ar
    36     1     8    1
    37     5     9    1
@<TRIPOS>MOLECULE
*****
 33 37 0 0 0
SMALL
GASTEIGER

@<TRIPOS>ATOM
      1 O          64.0783   88.8126   13.1527 O.3     1  UNL1       -0.3822
      2 C          63.7818   88.5635   14.6018 C.3     1  UNL1        0.1164
      3 C          63.5369   87.8240   15.8836 C.3     1  UNL1        0.0487
      4 C          63.2463   88.5835   17.1440 C.3     1  UNL1        0.0714
      5 N          63.2005   90.0826   17.1226 N.3     1  UNL1       -0.2969
      6 C          63.4453   90.8222   15.8408 C.3     1  UNL1        0.0790
      7 C          63.7360   90.0627   14.5805 C.3     1  UNL1        0.1048
      8 H          64.2024   87.9649   12.6977 H       1  UNL1        0.2107
      9 H          63.9009   90.4082   17.7888 H       1  UNL1        0.1233
     10 C          63.9305   87.1509   14.1200 C.ar    1  UNL1        0.0046
     11 C          64.8263   86.1982   14.8549 C.ar    1  UNL1        0.0004
     12 C          64.9751   84.7855   14.3731 C.ar    1  UNL1        0.0317
     13 C          64.2281   84.3255   13.1564 C.ar    1  UNL1        0.1674
     14 F          64.3769   82.9128   12.6746 F       1  UNL1       -0.2018
     15 C          63.3323   85.2781   12.4215 C.ar    1  UNL1        0.1671
     16 F          62.5853   84.8180   11.2048 F       1  UNL1       -0.2018
     17 C          63.1835   86.6908   12.9033 C.ar    1  UNL1        0.0299
     18 C          63.9808   90.8023   13.2987 C.ar    1  UNL1        0.1640
     19 O          63.2747   90.5671   11.9963 O.2     1  UNL1       -0.3571
     20 N          63.8323   91.5264   10.9869 N.ar    1  UNL1       -0.0768
     21 C          64.8830   92.3545   11.6654 C.ar    1  UNL1        0.1287
     22 C          64.9748   91.9069   13.0941 C.ar    1  UNL1        0.0883
     23 BR         65.8984   92.4658   14.1355 Br      1  UNL1       -0.0444
     24 C          65.6987   93.4395   11.0272 C.ar    1  UNL1        0.0214
     25 C          65.3465   94.8787   11.2611 C.ar    1  UNL1        0.0016
     26 C          66.1622   95.9637   10.6229 C.ar    1  UNL1        0.0001
     27 C          67.3301   95.6096    9.7508 C.ar    1  UNL1        0.0000
     28 C          67.6823   94.1704    9.5168 C.ar    1  UNL1        0.0000
     29 C          68.8502   93.8163    8.6447 C.ar    1  UNL1        0.0000
     30 C          69.2023   92.3771    8.4108 C.ar    1  UNL1        0.0000
     31 C          68.3866   91.2921    9.0490 C.ar    1  UNL1        0.0000
     32 C          67.2188   91.6462    9.9211 C.ar    1  UNL1        0.0000
     33 C          66.8666   93.0853   10.1550 C.ar    1  UNL1        0.0016
@<TRIPOS>BOND
     1     2     1    1
     2     2    10    1
     3    10    11   ar
     4    11    12   ar
     5    12    13   ar
     6    13    14    1
     7    13    15   ar
     8    15    16    1
     9    15    17   ar
    10     2     3    1
    11     3     4    1
    12     4     5    1
    13     5     6    1
    14     6     7    1
    15     7    18    1
    16    18    19   ar
    17    19    20   ar
    18    20    21   ar
    19    21    24    1
    20    24    25   ar
    21    25    26   ar
    22    26    27   ar
    23    27    28   ar
    24    28    29   ar
    25    29    30   ar
    26    30    31   ar
    27    31    32   ar
    28    32    33   ar
    29    21    22   ar
    30    22    23    1
    31     7     2    1
    32    22    18   ar
    33    17    10   ar
    34    33    24   ar
    35    33    28   ar
    36     1     8    1
    37     5     9    1
