@<TRIPOS>MOLECULE
*****
 35 38 0 0 0
SMALL
GASTEIGER

@<TRIPOS>ATOM
      1 C          63.1164   89.7895   14.2098 C.3     1  UNL1        0.1532
      2 N          69.1067   93.1335   14.6382 N.3     1  UNL1       -0.3221
      3 C          67.7491   92.5167   14.8012 C.3     1  UNL1        0.0542
      4 C          66.9517   92.7767   16.0447 C.3     1  UNL1        0.0370
      5 C          65.5941   92.1599   16.2078 C.3     1  UNL1        0.0948
      6 N          65.0340   91.2831   15.1273 N.am    1  UNL1       -0.2781
      7 C          63.6765   90.6663   15.2903 C.2     1  UNL1        0.2438
      8 O          62.8790   90.9263   16.5338 O.2     1  UNL1       -0.2731
      9 C          65.8315   91.0231   13.8838 C.3     1  UNL1        0.0948
     10 C          67.1891   91.6399   13.7207 C.3     1  UNL1        0.0370
     11 H          69.3265   93.6941   15.4615 H       1  UNL1        0.1188
     12 H          69.1124   93.7289   13.8100 H       1  UNL1        0.1188
     13 N          61.6587   89.8639   13.8638 N.am    1  UNL1       -0.2978
     14 C          61.2351   90.0509   12.4371 C.2     1  UNL1        0.2257
     15 O          59.7774   90.1253   12.0911 O.2     1  UNL1       -0.2748
     16 H          60.9800   89.7900   14.5731 H       1  UNL1        0.1498
     17 C          62.2692   90.1634   11.3563 C.3     1  UNL1        0.0884
     18 C          63.4563   90.6638   10.5880 C.3     1  UNL1        0.0135
     19 C          63.0690   91.3191   11.8804 C.3     1  UNL1        0.0135
     20 C          61.8285   89.0469   10.4569 C.ar    1  UNL1       -0.0040
     21 C          62.5298   87.7218   10.5074 C.ar    1  UNL1       -0.0021
     22 C          62.0891   86.6052    9.6080 C.ar    1  UNL1        0.0111
     23 C          60.9472   86.8137    8.6580 C.ar    1  UNL1        0.0585
     24 CL         60.5065   85.6970    7.7585 Cl      1  UNL1       -0.0822
     25 C          60.2459   88.1386    8.6074 C.ar    1  UNL1        0.0225
     26 C          60.6866   89.2552    9.5068 C.ar    1  UNL1        0.0550
     27 CL         59.9853   90.5802    9.4562 Cl      1  UNL1       -0.0825
     28 C          64.0139   88.8382   13.4753 C.3     1  UNL1        0.0553
     29 C          63.9717   87.3723   13.7905 C.ar    1  UNL1       -0.0200
     30 C          63.3637   86.4120   12.8117 C.ar    1  UNL1       -0.0037
     31 C          63.3214   84.9461   13.1269 C.ar    1  UNL1        0.0064
     32 C          63.8871   84.4405   14.4208 C.ar    1  UNL1        0.0345
     33 BR         63.8449   82.9746   14.7360 Br      1  UNL1       -0.0490
     34 C          64.4952   85.4009   15.3996 C.ar    1  UNL1        0.0064
     35 C          64.5374   86.8668   15.0845 C.ar    1  UNL1       -0.0037
@<TRIPOS>BOND
     1     2     3    1
     2     3     4    1
     3     4     5    1
     4     5     6    1
     5     6     7   am
     6     7     8    2
     7     7     1    1
     8     1    28    1
     9    28    29    1
    10    29    30   ar
    11    30    31   ar
    12    31    32   ar
    13    32    33    1
    14    32    34   ar
    15    34    35   ar
    16     1    13    1
    17    13    14   am
    18    14    15    2
    19    14    17    1
    20    17    20    1
    21    20    21   ar
    22    21    22   ar
    23    22    23   ar
    24    23    24    1
    25    23    25   ar
    26    25    26   ar
    27    26    27    1
    28    17    18    1
    29    18    19    1
    30     6     9    1
    31     9    10    1
    32    10     3    1
    33    35    29   ar
    34    19    17    1
    35    26    20   ar
    36     2    11    1
    37     2    12    1
    38    13    16    1
@<TRIPOS>MOLECULE
*****
 35 38 0 0 0
SMALL
GASTEIGER

@<TRIPOS>ATOM
      1 C          62.5876   85.2018   12.3106 C.3     1  UNL1        0.1532
      2 N          62.1820   78.4202   13.3571 N.3     1  UNL1       -0.3221
      3 C          62.3984   79.8274   12.8849 C.3     1  UNL1        0.0542
      4 C          63.0745   80.0817   11.5703 C.3     1  UNL1        0.0370
      5 C          63.2908   81.4889   11.0981 C.3     1  UNL1        0.0948
      6 N          62.8310   82.6418   11.9405 N.am    1  UNL1       -0.2781
      7 C          63.0474   84.0490   11.4682 C.2     1  UNL1        0.2438
      8 O          63.7235   84.3033   10.1537 O.2     1  UNL1       -0.2731
      9 C          62.1549   82.3874   13.2550 C.3     1  UNL1        0.0948
     10 C          61.9386   80.9802   13.7272 C.3     1  UNL1        0.0370
     11 H          62.5535   77.7686   12.6657 H       1  UNL1        0.1188
     12 H          61.1835   78.2526   13.4802 H       1  UNL1        0.1188
     13 N          61.8930   84.9471   13.6155 N.am    1  UNL1       -0.2978
     14 C          62.6405   85.1052   14.9063 C.2     1  UNL1        0.2257
     15 O          61.9459   84.8506   16.2113 O.2     1  UNL1       -0.2748
     16 H          60.9466   84.6763   13.6247 H       1  UNL1        0.1498
     17 C          64.0825   85.5179   14.8923 C.3     1  UNL1        0.0884
     18 C          65.5745   85.4236   14.7693 C.3     1  UNL1        0.0135
     19 C          64.7271   84.2014   14.5738 C.3     1  UNL1        0.0135
     20 C          63.9388   86.9776   15.2060 C.ar    1  UNL1       -0.0040
     21 C          64.3000   88.0054   14.1748 C.ar    1  UNL1       -0.0021
     22 C          64.1563   89.4652   14.4885 C.ar    1  UNL1        0.0111
     23 C          63.6514   89.8972   15.8332 C.ar    1  UNL1        0.0585
     24 CL         63.5077   91.3571   16.1469 Cl      1  UNL1       -0.0822
     25 C          63.2902   88.8695   16.8644 C.ar    1  UNL1        0.0225
     26 C          63.4340   87.4097   16.5507 C.ar    1  UNL1        0.0550
     27 CL         63.0728   86.3819   17.5819 Cl      1  UNL1       -0.0825
     28 C          62.8223   86.6092   11.8480 C.3     1  UNL1        0.0553
     29 C          61.9673   87.1948   10.7637 C.ar    1  UNL1       -0.0200
     30 C          61.0372   86.3135    9.9838 C.ar    1  UNL1       -0.0037
     31 C          60.1821   86.8990    8.8993 C.ar    1  UNL1        0.0064
     32 C          60.2571   88.3659    8.5948 C.ar    1  UNL1        0.0345
     33 BR         59.4020   88.9514    7.5104 Br      1  UNL1       -0.0490
     34 C          61.1872   89.2472    9.3747 C.ar    1  UNL1        0.0064
     35 C          62.0423   88.6616   10.4591 C.ar    1  UNL1       -0.0037
@<TRIPOS>BOND
     1     2     3    1
     2     3     4    1
     3     4     5    1
     4     5     6    1
     5     6     7   am
     6     7     8    2
     7     7     1    1
     8     1    28    1
     9    28    29    1
    10    29    30   ar
    11    30    31   ar
    12    31    32   ar
    13    32    33    1
    14    32    34   ar
    15    34    35   ar
    16     1    13    1
    17    13    14   am
    18    14    15    2
    19    14    17    1
    20    17    20    1
    21    20    21   ar
    22    21    22   ar
    23    22    23   ar
    24    23    24    1
    25    23    25   ar
    26    25    26   ar
    27    26    27    1
    28    17    18    1
    29    18    19    1
    30     6     9    1
    31     9    10    1
    32    10     3    1
    33    35    29   ar
    34    19    17    1
    35    26    20   ar
    36     2    11    1
    37     2    12    1
    38    13    16    1
@<TRIPOS>MOLECULE
*****
 35 38 0 0 0
SMALL
GASTEIGER

@<TRIPOS>ATOM
      1 C          63.5423   90.2541   13.1044 C.3     1  UNL1        0.1532
      2 N          68.3621   94.1717   16.0492 N.3     1  UNL1       -0.3221
      3 C          67.3369   93.4965   15.1873 C.3     1  UNL1        0.0542
      4 C          67.0306   94.0378   13.8223 C.3     1  UNL1        0.0370
      5 C          66.0054   93.3625   12.9604 C.3     1  UNL1        0.0948
      6 N          65.2865   92.1460   13.4634 N.am    1  UNL1       -0.2781
      7 C          64.2612   91.4707   12.6014 C.2     1  UNL1        0.2438
      8 O          63.9550   92.0120   11.2365 O.2     1  UNL1       -0.2731
      9 C          65.5928   91.6046   14.8283 C.3     1  UNL1        0.0948
     10 C          66.6180   92.2799   15.6903 C.3     1  UNL1        0.0370
     11 H          68.7473   94.9755   15.5532 H       1  UNL1        0.1188
     12 H          69.1115   93.5142   16.2647 H       1  UNL1        0.1188
     13 N          62.0427   90.2208   13.1171 N.am    1  UNL1       -0.2978
     14 C          61.2924   89.7641   11.9013 C.2     1  UNL1        0.2257
     15 O          59.7927   89.7307   11.9139 O.2     1  UNL1       -0.2748
     16 H          61.5509   90.4988   13.9234 H       1  UNL1        0.1498
     17 C          62.0416   89.3406   10.6727 C.3     1  UNL1        0.0884
     18 C          62.7729   89.4319    9.3663 C.3     1  UNL1        0.0135
     19 C          62.2505   90.6758   10.0218 C.3     1  UNL1        0.0135
     20 C          62.0928   87.8583   10.8968 C.ar    1  UNL1       -0.0040
     21 C          63.0452   87.2846   11.9038 C.ar    1  UNL1       -0.0021
     22 C          63.0965   85.8023   12.1279 C.ar    1  UNL1        0.0111
     23 C          62.1955   84.8938   11.3452 C.ar    1  UNL1        0.0585
     24 CL         62.2468   83.4115   11.5694 Cl      1  UNL1       -0.0822
     25 C          61.2431   85.4675   10.3383 C.ar    1  UNL1        0.0225
     26 C          61.1919   86.9497   10.1141 C.ar    1  UNL1        0.0550
     27 CL         60.2395   87.5235    9.1072 Cl      1  UNL1       -0.0825
     28 C          64.3229   89.0708   13.5948 C.3     1  UNL1        0.0553
     29 C          63.9357   88.3960   14.8772 C.ar    1  UNL1       -0.0200
     30 C          63.3262   89.1950   15.9907 C.ar    1  UNL1       -0.0037
     31 C          62.9389   88.5203   17.2732 C.ar    1  UNL1        0.0064
     32 C          63.1611   87.0465   17.4421 C.ar    1  UNL1        0.0345
     33 BR         62.7738   86.3717   18.7245 Br      1  UNL1       -0.0490
     34 C          63.7706   86.2474   16.3284 C.ar    1  UNL1        0.0064
     35 C          64.1579   86.9222   15.0460 C.ar    1  UNL1       -0.0037
@<TRIPOS>BOND
     1     2     3    1
     2     3     4    1
     3     4     5    1
     4     5     6    1
     5     6     7   am
     6     7     8    2
     7     7     1    1
     8     1    28    1
     9    28    29    1
    10    29    30   ar
    11    30    31   ar
    12    31    32   ar
    13    32    33    1
    14    32    34   ar
    15    34    35   ar
    16     1    13    1
    17    13    14   am
    18    14    15    2
    19    14    17    1
    20    17    20    1
    21    20    21   ar
    22    21    22   ar
    23    22    23   ar
    24    23    24    1
    25    23    25   ar
    26    25    26   ar
    27    26    27    1
    28    17    18    1
    29    18    19    1
    30     6     9    1
    31     9    10    1
    32    10     3    1
    33    35    29   ar
    34    19    17    1
    35    26    20   ar
    36     2    11    1
    37     2    12    1
    38    13    16    1
@<TRIPOS>MOLECULE
*****
 35 38 0 0 0
SMALL
GASTEIGER

@<TRIPOS>ATOM
      1 C          63.1077   85.5725   13.1885 C.3     1  UNL1        0.1532
      2 N          64.1807   92.3391   12.6314 N.3     1  UNL1       -0.3221
      3 C          64.1091   90.8834   12.9859 C.3     1  UNL1        0.0542
      4 C          64.8240   90.3713   14.2011 C.3     1  UNL1        0.0370
      5 C          64.7523   88.9155   14.5555 C.3     1  UNL1        0.0948
      6 N          63.9658   87.9719   13.6948 N.am    1  UNL1       -0.2781
      7 C          63.8942   86.5161   14.0492 C.2     1  UNL1        0.2438
      8 O          64.6090   86.0040   15.2644 O.2     1  UNL1       -0.2731
      9 C          63.2510   88.4840   12.4796 C.3     1  UNL1        0.0948
     10 C          63.3226   89.9397   12.1252 C.3     1  UNL1        0.0370
     11 H          64.7527   92.8289   13.3195 H       1  UNL1        0.1188
     12 H          63.2406   92.7348   12.6274 H       1  UNL1        0.1188
     13 N          61.9946   84.7633   13.7856 N.am    1  UNL1       -0.2978
     14 C          62.2479   83.3540   14.2323 C.2     1  UNL1        0.2257
     15 O          61.1348   82.5449   14.8294 O.2     1  UNL1       -0.2748
     16 H          61.0978   85.1573   13.8843 H       1  UNL1        0.1498
     17 C          63.6143   82.7537   14.0819 C.3     1  UNL1        0.0884
     18 C          65.0581   82.4502   14.3525 C.3     1  UNL1        0.0135
     19 C          64.3118   83.3997   15.2421 C.3     1  UNL1        0.0135
     20 C          63.3914   81.8992   12.8693 C.ar    1  UNL1       -0.0040
     21 C          63.7040   82.4377   11.5046 C.ar    1  UNL1       -0.0021
     22 C          63.4811   81.5832   10.2921 C.ar    1  UNL1        0.0111
     23 C          62.9457   80.1904   10.4443 C.ar    1  UNL1        0.0585
     24 CL         62.7228   79.3359    9.2317 Cl      1  UNL1       -0.0822
     25 C          62.6331   79.6519   11.8089 C.ar    1  UNL1        0.0225
     26 C          62.8560   80.5063   13.0214 C.ar    1  UNL1        0.0550
     27 CL         62.5434   79.9679   14.3862 Cl      1  UNL1       -0.0825
     28 C          63.4342   85.4378   11.7307 C.3     1  UNL1        0.0553
     29 C          62.4140   85.8103   10.6961 C.ar    1  UNL1       -0.0200
     30 C          62.6310   85.4356    9.2600 C.ar    1  UNL1       -0.0037
     31 C          61.6108   85.8081    8.2253 C.ar    1  UNL1        0.0064
     32 C          60.3736   86.5552    8.6268 C.ar    1  UNL1        0.0345
     33 BR         59.3534   86.9276    7.5922 Br      1  UNL1       -0.0490
     34 C          60.1566   86.9298   10.0630 C.ar    1  UNL1        0.0064
     35 C          61.1768   86.5574   11.0976 C.ar    1  UNL1       -0.0037
@<TRIPOS>BOND
     1     2     3    1
     2     3     4    1
     3     4     5    1
     4     5     6    1
     5     6     7   am
     6     7     8    2
     7     7     1    1
     8     1    28    1
     9    28    29    1
    10    29    30   ar
    11    30    31   ar
    12    31    32   ar
    13    32    33    1
    14    32    34   ar
    15    34    35   ar
    16     1    13    1
    17    13    14   am
    18    14    15    2
    19    14    17    1
    20    17    20    1
    21    20    21   ar
    22    21    22   ar
    23    22    23   ar
    24    23    24    1
    25    23    25   ar
    26    25    26   ar
    27    26    27    1
    28    17    18    1
    29    18    19    1
    30     6     9    1
    31     9    10    1
    32    10     3    1
    33    35    29   ar
    34    19    17    1
    35    26    20   ar
    36     2    11    1
    37     2    12    1
    38    13    16    1
@<TRIPOS>MOLECULE
*****
 35 38 0 0 0
SMALL
GASTEIGER

@<TRIPOS>ATOM
      1 C          63.3379   84.2014   13.5040 C.3     1  UNL1        0.1532
      2 N          62.7265   78.2165   10.1788 N.3     1  UNL1       -0.3221
      3 C          62.7553   79.3786   11.1268 C.3     1  UNL1        0.0542
      4 C          62.2879   79.2044   12.5414 C.3     1  UNL1        0.0370
      5 C          62.3167   80.3665   13.4893 C.3     1  UNL1        0.0948
      6 N          62.8129   81.7029   13.0227 N.am    1  UNL1       -0.2781
      7 C          62.8417   82.8650   13.9706 C.2     1  UNL1        0.2438
      8 O          62.3743   82.6908   15.3852 O.2     1  UNL1       -0.2731
      9 C          63.2803   81.8772   11.6081 C.3     1  UNL1        0.0948
     10 C          63.2515   80.7150   10.6601 C.3     1  UNL1        0.0370
     11 H          62.3633   77.3939   10.6603 H       1  UNL1        0.1188
     12 H          63.6716   78.0259    9.8458 H       1  UNL1        0.1188
     13 N          64.7530   84.6146   13.7811 N.am    1  UNL1       -0.2978
     14 C          65.0432   85.6282   14.8481 C.2     1  UNL1        0.2257
     15 O          66.4583   86.0414   15.1251 O.2     1  UNL1       -0.2748
     16 H          65.4914   84.2206   13.2626 H       1  UNL1        0.1498
     17 C          63.9182   86.2286   15.6380 C.3     1  UNL1        0.0884
     18 C          62.8328   86.3664   16.6640 C.3     1  UNL1        0.0135
     19 C          63.6413   85.1050   16.5923 C.3     1  UNL1        0.0135
     20 C          63.8044   87.5608   14.9580 C.ar    1  UNL1       -0.0040
     21 C          63.9713   87.6603   13.4706 C.ar    1  UNL1       -0.0021
     22 C          63.8575   88.9924   12.7906 C.ar    1  UNL1        0.0111
     23 C          63.5768   90.2250   13.5979 C.ar    1  UNL1        0.0585
     24 CL         63.4630   91.5572   12.9179 Cl      1  UNL1       -0.0822
     25 C          63.4099   90.1256   15.0853 C.ar    1  UNL1        0.0225
     26 C          63.5237   88.7934   15.7653 C.ar    1  UNL1        0.0550
     27 CL         63.3569   88.6939   17.2527 Cl      1  UNL1       -0.0825
     28 C          62.4190   85.1247   12.7602 C.3     1  UNL1        0.0553
     29 C          62.4095   85.1255   11.2603 C.ar    1  UNL1       -0.0200
     30 C          61.3497   85.8836   10.5174 C.ar    1  UNL1       -0.0037
     31 C          61.3402   85.8844    9.0174 C.ar    1  UNL1        0.0064
     32 C          62.3905   85.1271    8.2603 C.ar    1  UNL1        0.0345
     33 BR         62.3811   85.1279    6.7604 Br      1  UNL1       -0.0490
     34 C          63.4504   84.3689    9.0033 C.ar    1  UNL1        0.0064
     35 C          63.4599   84.3682   10.5032 C.ar    1  UNL1       -0.0037
@<TRIPOS>BOND
     1     2     3    1
     2     3     4    1
     3     4     5    1
     4     5     6    1
     5     6     7   am
     6     7     8    2
     7     7     1    1
     8     1    28    1
     9    28    29    1
    10    29    30   ar
    11    30    31   ar
    12    31    32   ar
    13    32    33    1
    14    32    34   ar
    15    34    35   ar
    16     1    13    1
    17    13    14   am
    18    14    15    2
    19    14    17    1
    20    17    20    1
    21    20    21   ar
    22    21    22   ar
    23    22    23   ar
    24    23    24    1
    25    23    25   ar
    26    25    26   ar
    27    26    27    1
    28    17    18    1
    29    18    19    1
    30     6     9    1
    31     9    10    1
    32    10     3    1
    33    35    29   ar
    34    19    17    1
    35    26    20   ar
    36     2    11    1
    37     2    12    1
    38    13    16    1
@<TRIPOS>MOLECULE
*****
 35 38 0 0 0
SMALL
GASTEIGER

@<TRIPOS>ATOM
      1 C          61.3702   95.1368   -1.9420 C.3     1  UNL1        0.1532
      2 N          63.7430   91.4562    3.3565 N.3     1  UNL1       -0.3221
      3 C          63.4168   92.4527    2.2838 C.3     1  UNL1        0.0542
      4 C          64.1588   93.7547    2.2190 C.3     1  UNL1        0.0370
      5 C          63.8327   94.7512    1.1463 C.3     1  UNL1        0.0948
      6 N          62.7645   94.4457    0.1385 N.am    1  UNL1       -0.2781
      7 C          62.4384   95.4422   -0.9342 C.2     1  UNL1        0.2438
      8 O          63.1804   96.7442   -0.9990 O.2     1  UNL1       -0.2731
      9 C          62.0225   93.1438    0.2033 C.3     1  UNL1        0.0948
     10 C          62.3487   92.1472    1.2760 C.3     1  UNL1        0.0370
     11 H          64.4869   91.8253    3.9486 H       1  UNL1        0.1188
     12 H          64.0512   90.5836    2.9275 H       1  UNL1        0.1188
     13 N          60.2837   96.1358   -2.2095 N.am    1  UNL1       -0.2978
     14 C          58.8807   95.8569   -1.7582 C.2     1  UNL1        0.2257
     15 O          57.7942   96.8559   -2.0257 O.2     1  UNL1       -0.2748
     16 H          60.4915   96.9745   -2.6813 H       1  UNL1        0.1498
     17 C          58.5641   94.5790   -1.0393 C.3     1  UNL1        0.0884
     18 C          58.4909   93.5610    0.0598 C.3     1  UNL1        0.0135
     19 C          59.1548   94.8834    0.3055 C.3     1  UNL1        0.0135
     20 C          57.8635   93.8308   -2.1344 C.ar    1  UNL1       -0.0040
     21 C          58.6538   92.9905   -3.0932 C.ar    1  UNL1       -0.0021
     22 C          57.9532   92.2423   -4.1883 C.ar    1  UNL1        0.0111
     23 C          56.4622   92.3343   -4.3246 C.ar    1  UNL1        0.0585
     24 CL         55.7615   91.5860   -5.4197 Cl      1  UNL1       -0.0822
     25 C          55.6719   93.1745   -3.3658 C.ar    1  UNL1        0.0225
     26 C          56.3725   93.9228   -2.2707 C.ar    1  UNL1        0.0550
     27 CL         55.5822   94.7631   -1.3119 Cl      1  UNL1       -0.0825
     28 C          61.3885   93.8323   -2.6823 C.3     1  UNL1        0.0553
     29 C          62.4178   93.5878   -3.7456 C.ar    1  UNL1       -0.0200
     30 C          62.2536   94.2027   -5.1039 C.ar    1  UNL1       -0.0037
     31 C          63.2829   93.9582   -6.1673 C.ar    1  UNL1        0.0064
     32 C          64.4764   93.0988   -5.8724 C.ar    1  UNL1        0.0345
     33 BR         65.5057   92.8543   -6.9357 Br      1  UNL1       -0.0490
     34 C          64.6406   92.4839   -4.5140 C.ar    1  UNL1        0.0064
     35 C          63.6113   92.7284   -3.4507 C.ar    1  UNL1       -0.0037
@<TRIPOS>BOND
     1     2     3    1
     2     3     4    1
     3     4     5    1
     4     5     6    1
     5     6     7   am
     6     7     8    2
     7     7     1    1
     8     1    28    1
     9    28    29    1
    10    29    30   ar
    11    30    31   ar
    12    31    32   ar
    13    32    33    1
    14    32    34   ar
    15    34    35   ar
    16     1    13    1
    17    13    14   am
    18    14    15    2
    19    14    17    1
    20    17    20    1
    21    20    21   ar
    22    21    22   ar
    23    22    23   ar
    24    23    24    1
    25    23    25   ar
    26    25    26   ar
    27    26    27    1
    28    17    18    1
    29    18    19    1
    30     6     9    1
    31     9    10    1
    32    10     3    1
    33    35    29   ar
    34    19    17    1
    35    26    20   ar
    36     2    11    1
    37     2    12    1
    38    13    16    1
@<TRIPOS>MOLECULE
*****
 35 38 0 0 0
SMALL
GASTEIGER

@<TRIPOS>ATOM
      1 C          62.3677   87.3407   11.5025 C.3     1  UNL1        0.1532
      2 N          63.0430   80.5595   12.4019 N.3     1  UNL1       -0.3221
      3 C          63.0709   82.0590   12.4292 C.3     1  UNL1        0.0542
      4 C          63.8855   82.7752   13.4652 C.3     1  UNL1        0.0370
      5 C          63.9133   84.2747   13.4926 C.3     1  UNL1        0.0948
      6 N          63.1266   85.0580   12.4839 N.am    1  UNL1       -0.2781
      7 C          63.1544   86.5575   12.5112 C.2     1  UNL1        0.2438
      8 O          63.9691   87.2737   13.5472 O.2     1  UNL1       -0.2731
      9 C          62.3120   84.3417   11.4479 C.3     1  UNL1        0.0948
     10 C          62.2841   82.8423   11.4205 C.3     1  UNL1        0.0370
     11 H          63.6294   80.1948   13.1526 H       1  UNL1        0.1188
     12 H          63.3959   80.2292   11.5037 H       1  UNL1        0.1188
     13 N          61.0605   87.9651   11.8917 N.am    1  UNL1       -0.2978
     14 C          60.8031   89.4128   11.5951 C.2     1  UNL1        0.2257
     15 O          59.4958   90.0372   11.9842 O.2     1  UNL1       -0.2748
     16 H          60.3715   87.4248   12.3417 H       1  UNL1        0.1498
     17 C          61.8528   90.2361   10.9094 C.3     1  UNL1        0.0884
     18 C          62.5946   90.9495    9.8182 C.3     1  UNL1        0.0135
     19 C          61.3307   90.2055    9.5035 C.3     1  UNL1        0.0135
     20 C          62.7395   90.5526   12.0771 C.ar    1  UNL1       -0.0040
     21 C          62.3843   90.0523   13.4458 C.ar    1  UNL1       -0.0021
     22 C          63.2711   90.3688   14.6135 C.ar    1  UNL1        0.0111
     23 C          64.5130   91.1856   14.4125 C.ar    1  UNL1        0.0585
     24 CL         65.3997   91.5021   15.5802 Cl      1  UNL1       -0.0822
     25 C          64.8682   91.6860   13.0438 C.ar    1  UNL1        0.0225
     26 C          63.9815   91.3694   11.8761 C.ar    1  UNL1        0.0550
     27 CL         64.3367   91.8698   10.5073 Cl      1  UNL1       -0.0825
     28 C          62.8881   87.4996   10.1047 C.3     1  UNL1        0.0553
     29 C          62.3905   86.6001    9.0124 C.ar    1  UNL1       -0.0200
     30 C          63.3266   85.6298    8.3552 C.ar    1  UNL1       -0.0037
     31 C          62.8289   84.7302    7.2627 C.ar    1  UNL1        0.0064
     32 C          61.3952   84.8011    6.8276 C.ar    1  UNL1        0.0345
     33 BR         60.8975   83.9017    5.7353 Br      1  UNL1       -0.0490
     34 C          60.4591   85.7716    7.4849 C.ar    1  UNL1        0.0064
     35 C          60.9567   86.6711    8.5773 C.ar    1  UNL1       -0.0037
@<TRIPOS>BOND
     1     2     3    1
     2     3     4    1
     3     4     5    1
     4     5     6    1
     5     6     7   am
     6     7     8    2
     7     7     1    1
     8     1    28    1
     9    28    29    1
    10    29    30   ar
    11    30    31   ar
    12    31    32   ar
    13    32    33    1
    14    32    34   ar
    15    34    35   ar
    16     1    13    1
    17    13    14   am
    18    14    15    2
    19    14    17    1
    20    17    20    1
    21    20    21   ar
    22    21    22   ar
    23    22    23   ar
    24    23    24    1
    25    23    25   ar
    26    25    26   ar
    27    26    27    1
    28    17    18    1
    29    18    19    1
    30     6     9    1
    31     9    10    1
    32    10     3    1
    33    35    29   ar
    34    19    17    1
    35    26    20   ar
    36     2    11    1
    37     2    12    1
    38    13    16    1
@<TRIPOS>MOLECULE
*****
 35 38 0 0 0
SMALL
GASTEIGER

@<TRIPOS>ATOM
      1 C          60.3316   93.8889   -1.6733 C.3     1  UNL1        0.1532
      2 N          65.3063   94.9813    2.9430 N.3     1  UNL1       -0.3221
      3 C          64.1867   94.4949    2.0712 C.3     1  UNL1        0.0542
      4 C          63.5634   93.1551    2.3288 C.3     1  UNL1        0.0370
      5 C          62.4438   92.6686    1.4571 C.3     1  UNL1        0.0948
      6 N          61.9475   93.5220    0.3278 N.am    1  UNL1       -0.2781
      7 C          60.8279   93.0355   -0.5439 C.2     1  UNL1        0.2438
      8 O          60.2047   91.6957   -0.2863 O.2     1  UNL1       -0.2731
      9 C          62.5708   94.8618    0.0702 C.3     1  UNL1        0.0948
     10 C          63.6904   95.3482    0.9419 C.3     1  UNL1        0.0370
     11 H          65.5130   94.2798    3.6539 H       1  UNL1        0.1188
     12 H          65.0308   95.8530    3.3954 H       1  UNL1        0.1188
     13 N          59.5371   95.1279   -1.3840 N.am    1  UNL1       -0.2978
     14 C          58.0401   95.0964   -1.4714 C.2     1  UNL1        0.2257
     15 O          57.2456   96.3354   -1.1821 O.2     1  UNL1       -0.2748
     16 H          59.9983   95.9619   -1.1369 H       1  UNL1        0.1498
     17 C          57.3374   93.8257   -1.8479 C.3     1  UNL1        0.0884
     18 C          56.7572   92.4476   -1.7297 C.3     1  UNL1        0.0135
     19 C          57.4460   93.0747   -0.5540 C.3     1  UNL1        0.0135
     20 C          56.9847   94.1354   -3.2726 C.ar    1  UNL1       -0.0040
     21 C          57.9689   93.8498   -4.3680 C.ar    1  UNL1       -0.0021
     22 C          57.6163   94.1595   -5.7926 C.ar    1  UNL1        0.0111
     23 C          56.2795   94.7548   -6.1220 C.ar    1  UNL1        0.0585
     24 CL         55.9268   95.0645   -7.5467 Cl      1  UNL1       -0.0822
     25 C          55.2953   95.0405   -5.0267 C.ar    1  UNL1        0.0225
     26 C          55.6479   94.7308   -3.6020 C.ar    1  UNL1        0.0550
     27 CL         54.6637   95.0164   -2.5067 Cl      1  UNL1       -0.0825
     28 C          60.6298   93.5033   -3.0919 C.3     1  UNL1        0.0553
     29 C          61.8460   94.0507   -3.7781 C.ar    1  UNL1       -0.0200
     30 C          63.2075   93.5373   -3.4139 C.ar    1  UNL1       -0.0037
     31 C          64.4239   94.0848   -4.1001 C.ar    1  UNL1        0.0064
     32 C          64.2786   95.1457   -5.1506 C.ar    1  UNL1        0.0345
     33 BR         65.4949   95.6931   -5.8368 Br      1  UNL1       -0.0490
     34 C          62.9170   95.6591   -5.5148 C.ar    1  UNL1        0.0064
     35 C          61.7008   95.1116   -4.8285 C.ar    1  UNL1       -0.0037
@<TRIPOS>BOND
     1     2     3    1
     2     3     4    1
     3     4     5    1
     4     5     6    1
     5     6     7   am
     6     7     8    2
     7     7     1    1
     8     1    28    1
     9    28    29    1
    10    29    30   ar
    11    30    31   ar
    12    31    32   ar
    13    32    33    1
    14    32    34   ar
    15    34    35   ar
    16     1    13    1
    17    13    14   am
    18    14    15    2
    19    14    17    1
    20    17    20    1
    21    20    21   ar
    22    21    22   ar
    23    22    23   ar
    24    23    24    1
    25    23    25   ar
    26    25    26   ar
    27    26    27    1
    28    17    18    1
    29    18    19    1
    30     6     9    1
    31     9    10    1
    32    10     3    1
    33    35    29   ar
    34    19    17    1
    35    26    20   ar
    36     2    11    1
    37     2    12    1
    38    13    16    1
@<TRIPOS>MOLECULE
*****
 35 38 0 0 0
SMALL
GASTEIGER

@<TRIPOS>ATOM
      1 C          63.0382   89.6284   12.5231 C.3     1  UNL1        0.1532
      2 N          67.6600   94.2916   14.5587 N.3     1  UNL1       -0.3221
      3 C          66.6573   93.4159   13.8677 C.3     1  UNL1        0.0542
      4 C          66.2653   93.7003   12.4481 C.3     1  UNL1        0.0370
      5 C          65.2625   92.8246   11.7570 C.3     1  UNL1        0.0948
      6 N          64.6517   91.6644   12.4856 N.am    1  UNL1       -0.2781
      7 C          63.6490   90.7886   11.7945 C.2     1  UNL1        0.2438
      8 O          63.2570   91.0731   10.3749 O.2     1  UNL1       -0.2731
      9 C          65.0437   91.3799   13.9052 C.3     1  UNL1        0.0948
     10 C          66.0465   92.2557   14.5962 C.3     1  UNL1        0.0370
     11 H          67.9683   95.0248   13.9202 H       1  UNL1        0.1188
     12 H          68.4622   93.7300   14.8443 H       1  UNL1        0.1188
     13 N          61.5477   89.5291   12.6595 N.am    1  UNL1       -0.2978
     14 C          60.7706   88.6204   11.7538 C.2     1  UNL1        0.2257
     15 O          59.2801   88.5210   11.8903 O.2     1  UNL1       -0.2748
     16 H          61.0795   90.0603   13.3435 H       1  UNL1        0.1498
     17 C          61.4839   87.8110   10.7117 C.3     1  UNL1        0.0884
     18 C          62.4312   86.8224   10.0991 C.3     1  UNL1        0.0135
     19 C          62.4052   87.0137   11.5866 C.3     1  UNL1        0.0135
     20 C          60.8104   88.3271    9.4748 C.ar    1  UNL1       -0.0040
     21 C          60.7515   89.8030    9.2133 C.ar    1  UNL1       -0.0021
     22 C          60.0779   90.3192    7.9764 C.ar    1  UNL1        0.0111
     23 C          59.4633   89.3596    7.0011 C.ar    1  UNL1        0.0585
     24 CL         58.7897   89.8758    5.7641 Cl      1  UNL1       -0.0822
     25 C          59.5222   87.8837    7.2626 C.ar    1  UNL1        0.0225
     26 C          60.1957   87.3676    8.4994 C.ar    1  UNL1        0.0550
     27 CL         60.2546   85.8917    8.7610 Cl      1  UNL1       -0.0825
     28 C          63.9179   88.5676   13.1153 C.3     1  UNL1        0.0553
     29 C          63.6611   88.0711   14.5072 C.ar    1  UNL1       -0.0200
     30 C          63.8395   86.6172   14.8297 C.ar    1  UNL1       -0.0037
     31 C          63.5827   86.1207   16.2217 C.ar    1  UNL1        0.0064
     32 C          63.1474   87.0782   17.2912 C.ar    1  UNL1        0.0345
     33 BR         62.8906   86.5818   18.6831 Br      1  UNL1       -0.0490
     34 C          62.9690   88.5322   16.9686 C.ar    1  UNL1        0.0064
     35 C          63.2258   89.0287   15.5766 C.ar    1  UNL1       -0.0037
@<TRIPOS>BOND
     1     2     3    1
     2     3     4    1
     3     4     5    1
     4     5     6    1
     5     6     7   am
     6     7     8    2
     7     7     1    1
     8     1    28    1
     9    28    29    1
    10    29    30   ar
    11    30    31   ar
    12    31    32   ar
    13    32    33    1
    14    32    34   ar
    15    34    35   ar
    16     1    13    1
    17    13    14   am
    18    14    15    2
    19    14    17    1
    20    17    20    1
    21    20    21   ar
    22    21    22   ar
    23    22    23   ar
    24    23    24    1
    25    23    25   ar
    26    25    26   ar
    27    26    27    1
    28    17    18    1
    29    18    19    1
    30     6     9    1
    31     9    10    1
    32    10     3    1
    33    35    29   ar
    34    19    17    1
    35    26    20   ar
    36     2    11    1
    37     2    12    1
    38    13    16    1
