@<TRIPOS>MOLECULE
*****
 39 41 0 0 0
SMALL
GASTEIGER

@<TRIPOS>ATOM
      1 N          63.9198   90.7494   13.5586 N.am    1  UNL1       -0.2770
      2 C          62.7325   90.2354   12.7996 C.2     1  UNL1        0.2254
      3 O          61.7189   89.3705   13.4887 O.2     1  UNL1       -0.2749
      4 C          62.5588   90.5862   11.3516 C.3     1  UNL1        0.0780
      5 C          61.3376   89.7413   11.5633 C.3     1  UNL1        0.0096
      6 C          63.5723   91.4510   10.6626 C.3     1  UNL1        0.0154
      7 C          64.7596   91.9650   11.4215 C.3     1  UNL1        0.0452
      8 C          64.9334   91.6142   12.8695 C.3     1  UNL1        0.1018
      9 C          65.7732   92.8298   10.7325 C.ar    1  UNL1       -0.0197
     10 C          65.5502   94.3095   10.6288 C.ar    1  UNL1       -0.0042
     11 C          66.5638   95.1743    9.9398 C.ar    1  UNL1        0.0005
     12 C          67.8004   94.5594    9.3544 C.ar    1  UNL1        0.0114
     13 C          68.0234   93.0796    9.4581 C.ar    1  UNL1        0.0574
     14 CL         69.2601   92.4647    8.8728 Cl      1  UNL1       -0.0823
     15 C          67.0098   92.2149   10.1471 C.ar    1  UNL1        0.0072
     16 C          66.1207   92.1282   13.6285 C.ar    1  UNL1       -0.0039
     17 C          66.1376   93.5432   14.1260 C.ar    1  UNL1       -0.0018
     18 C          67.3249   94.0573   14.8849 C.ar    1  UNL1        0.0111
     19 C          68.4954   93.1563   15.1464 C.ar    1  UNL1        0.0577
     20 CL         69.6827   93.6704   15.9053 Cl      1  UNL1       -0.0822
     21 C          68.4785   91.7413   14.6489 C.ar    1  UNL1        0.0111
     22 C          67.2912   91.2273   13.8899 C.ar    1  UNL1       -0.0018
     23 C          64.0936   90.3986   15.0066 C.3     1  UNL1        0.0991
     24 C          64.4765   92.1254   16.9096 C.3     1  UNL1        0.0018
     25 C          63.5445   91.3042   16.0688 C.3     1  UNL1        0.0216
     26 C          64.8165   89.1422   15.3924 C.3     1  UNL1        0.1703
     27 S          64.0401   87.9260   15.8026 S.O2    1  UNL1       -0.0115
     28 O          63.4069   88.7060   16.9165 O.2     1  UNL1       -0.1730
     29 O          64.6734   87.1461   14.6888 O.2     1  UNL1       -0.1730
     30 C          63.2638   86.7099   16.2129 C.3     1  UNL1        0.1108
     31 C          63.8788   85.9366   15.0843 C.3     1  UNL1        0.0236
     32 C          62.6487   87.4832   17.3415 C.3     1  UNL1        0.0236
     33 C          62.4874   85.4938   16.6231 C.3     1  UNL1        0.0236
     34 C          61.9608   90.6435    9.9771 C.3     1  UNL1        0.0934
     35 C          61.4321   89.3944    9.3366 C.2     1  UNL1        0.2198
     36 N          60.1839   89.4477    8.5066 N.am    1  UNL1       -0.3288
     37 O          62.1517   88.0920    9.5261 O.2     1  UNL1       -0.2753
     38 H          59.7115   90.3025    8.3822 H       1  UNL1        0.1449
     39 H          59.8369   88.6279    8.0862 H       1  UNL1        0.1449
@<TRIPOS>BOND
     1    24    25    1
     2    23    25    1
     3    23    26    1
     4    26    27    1
     5    27    28    2
     6    27    29    2
     7    27    30    1
     8    30    31    1
     9    30    32    1
    10    30    33    1
    11    23     1    1
    12     1     2   am
    13     2     3    2
    14     2     4    1
    15     4     5    1
    16     4    34    1
    17    34    35    1
    18    35    36   am
    19    35    37    2
    20     4     6    1
    21     6     7    1
    22     7     9    1
    23     9    10   ar
    24    10    11   ar
    25    11    12   ar
    26    12    13   ar
    27    13    14    1
    28    13    15   ar
    29     7     8    1
    30     8    16    1
    31    16    17   ar
    32    17    18   ar
    33    18    19   ar
    34    19    20    1
    35    19    21   ar
    36    21    22   ar
    37     8     1    1
    38    22    16   ar
    39    15     9   ar
    40    36    38    1
    41    36    39    1
@<TRIPOS>MOLECULE
*****
 39 41 0 0 0
SMALL
GASTEIGER

@<TRIPOS>ATOM
      1 N          63.9870   90.7733   13.5074 N.am    1  UNL1       -0.2770
      2 C          62.8099   90.2510   12.7382 C.2     1  UNL1        0.2254
      3 O          61.7981   89.3764   13.4176 O.2     1  UNL1       -0.2749
      4 C          62.6446   90.6033   11.2895 C.3     1  UNL1        0.0780
      5 C          61.4288   89.7479   11.4900 C.3     1  UNL1        0.0096
      6 C          63.6563   91.4778   10.6101 C.3     1  UNL1        0.0154
      7 C          64.8333   92.0000   11.3794 C.3     1  UNL1        0.0452
      8 C          64.9987   91.6478   12.8280 C.3     1  UNL1        0.1018
      9 C          65.8451   92.8746   10.6999 C.ar    1  UNL1       -0.0197
     10 C          67.0769   92.2673   10.0968 C.ar    1  UNL1       -0.0042
     11 C          68.0887   93.1419    9.4173 C.ar    1  UNL1        0.0005
     12 C          67.8686   94.6237    9.3412 C.ar    1  UNL1        0.0114
     13 C          66.6367   95.2310    9.9444 C.ar    1  UNL1        0.0574
     14 CL         66.4166   96.7128    9.8683 Cl      1  UNL1       -0.0823
     15 C          65.6250   94.3564   10.6238 C.ar    1  UNL1        0.0072
     16 C          66.1758   92.1701   13.5972 C.ar    1  UNL1       -0.0039
     17 C          67.3690   91.2915   13.8303 C.ar    1  UNL1       -0.0018
     18 C          68.5461   91.8137   14.5995 C.ar    1  UNL1        0.0111
     19 C          68.5300   93.2146   15.1357 C.ar    1  UNL1        0.0577
     20 CL         69.7071   93.7368   15.9049 Cl      1  UNL1       -0.0822
     21 C          67.3368   94.0932   14.9026 C.ar    1  UNL1        0.0111
     22 C          66.1597   93.5709   14.1333 C.ar    1  UNL1       -0.0018
     23 C          64.1523   90.4210   14.9561 C.3     1  UNL1        0.0991
     24 C          64.5440   92.1278   16.8753 C.3     1  UNL1        0.0018
     25 C          63.6071   91.3313   16.0162 C.3     1  UNL1        0.0216
     26 C          64.8629   89.1584   15.3445 C.3     1  UNL1        0.1703
     27 S          64.0751   87.9549   15.7699 S.O2    1  UNL1       -0.0115
     28 O          64.7202   87.1482   14.6822 O.2     1  UNL1       -0.1730
     29 O          63.4299   88.7616   16.8575 O.2     1  UNL1       -0.1730
     30 C          63.2873   86.7514   16.1952 C.3     1  UNL1        0.1108
     31 C          62.6566   87.5530   17.2951 C.3     1  UNL1        0.0236
     32 C          63.9180   85.9498   15.0954 C.3     1  UNL1        0.0236
     33 C          62.4995   85.5479   16.6206 C.3     1  UNL1        0.0236
     34 C          62.0569   90.6584    9.9106 C.3     1  UNL1        0.0934
     35 C          61.4399   89.4308    9.3086 C.2     1  UNL1        0.2198
     36 N          60.1599   89.5376    8.5340 N.am    1  UNL1       -0.3288
     37 O          62.1029   88.0964    9.4814 O.2     1  UNL1       -0.2753
     38 H          59.7247   90.4134    8.4206 H       1  UNL1        0.1449
     39 H          59.7549   88.7318    8.1390 H       1  UNL1        0.1449
@<TRIPOS>BOND
     1    24    25    1
     2    23    25    1
     3    23    26    1
     4    26    27    1
     5    27    28    2
     6    27    29    2
     7    27    30    1
     8    30    31    1
     9    30    32    1
    10    30    33    1
    11    23     1    1
    12     1     2   am
    13     2     3    2
    14     2     4    1
    15     4     5    1
    16     4    34    1
    17    34    35    1
    18    35    36   am
    19    35    37    2
    20     4     6    1
    21     6     7    1
    22     7     9    1
    23     9    10   ar
    24    10    11   ar
    25    11    12   ar
    26    12    13   ar
    27    13    14    1
    28    13    15   ar
    29     7     8    1
    30     8    16    1
    31    16    17   ar
    32    17    18   ar
    33    18    19   ar
    34    19    20    1
    35    19    21   ar
    36    21    22   ar
    37     8     1    1
    38    22    16   ar
    39    15     9   ar
    40    36    38    1
    41    36    39    1
@<TRIPOS>MOLECULE
*****
 39 41 0 0 0
SMALL
GASTEIGER

@<TRIPOS>ATOM
      1 N          63.7317   85.9236   13.1454 N.am    1  UNL1       -0.2770
      2 C          63.7135   87.3567   13.5879 C.2     1  UNL1        0.2254
      3 O          64.2586   87.7331   14.9337 O.2     1  UNL1       -0.2749
      4 C          63.1502   88.4134   12.6846 C.3     1  UNL1        0.0780
      5 C          63.5476   89.2588   13.8582 C.3     1  UNL1        0.0096
      6 C          62.6051   88.0371   11.3388 C.3     1  UNL1        0.0154
      7 C          62.6233   86.6040   10.8963 C.3     1  UNL1        0.0452
      8 C          63.1866   85.5472   11.7997 C.3     1  UNL1        0.1018
      9 C          62.0782   86.2275    9.5505 C.ar    1  UNL1       -0.0197
     10 C          62.9345   85.4700    8.5796 C.ar    1  UNL1       -0.0042
     11 C          62.3894   85.0935    7.2337 C.ar    1  UNL1        0.0005
     12 C          60.9879   85.4747    6.8589 C.ar    1  UNL1        0.0114
     13 C          60.1315   86.2323    7.8299 C.ar    1  UNL1        0.0574
     14 CL         58.7300   86.6134    7.4551 Cl      1  UNL1       -0.0823
     15 C          60.6766   86.6086    9.1757 C.ar    1  UNL1        0.0072
     16 C          63.2048   84.1140   11.3571 C.ar    1  UNL1       -0.0039
     17 C          64.4706   83.5091   10.8263 C.ar    1  UNL1       -0.0018
     18 C          64.4889   82.0760   10.3838 C.ar    1  UNL1        0.0111
     19 C          63.2413   81.2478   10.4721 C.ar    1  UNL1        0.0577
     20 CL         63.2595   79.8147   10.0296 Cl      1  UNL1       -0.0822
     21 C          61.9755   81.8528   11.0029 C.ar    1  UNL1        0.0111
     22 C          61.9573   83.2859   11.4455 C.ar    1  UNL1       -0.0018
     23 C          64.2951   84.8669   14.0487 C.3     1  UNL1        0.0991
     24 C          66.6430   85.4187   15.0145 C.3     1  UNL1        0.0018
     25 C          65.7746   84.6227   14.0859 C.3     1  UNL1        0.0216
     26 C          63.3789   84.0543   14.9149 C.3     1  UNL1        0.1703
     27 S          63.0449   82.6420   14.5355 S.O2    1  UNL1       -0.0115
     28 O          64.4794   82.4011   14.1692 O.2     1  UNL1       -0.1730
     29 O          61.6104   82.8828   14.9018 O.2     1  UNL1       -0.1730
     30 C          62.7109   81.2297   14.1562 C.3     1  UNL1        0.1108
     31 C          61.2593   81.5030   14.4169 C.3     1  UNL1        0.0236
     32 C          64.1626   80.9564   13.8955 C.3     1  UNL1        0.0236
     33 C          62.3769   79.8174   13.7768 C.3     1  UNL1        0.0236
     34 C          62.7249   89.7638   12.1889 C.3     1  UNL1        0.0934
     35 C          61.2957   90.0049   11.8024 C.2     1  UNL1        0.2198
     36 N          60.1941   89.6959   12.7724 N.am    1  UNL1       -0.3288
     37 O          60.9682   90.5549   10.4459 O.2     1  UNL1       -0.2753
     38 H          60.4090   89.3349   13.6627 H       1  UNL1        0.1449
     39 H          59.2561   89.8541   12.5187 H       1  UNL1        0.1449
@<TRIPOS>BOND
     1    24    25    1
     2    23    25    1
     3    23    26    1
     4    26    27    1
     5    27    28    2
     6    27    29    2
     7    27    30    1
     8    30    31    1
     9    30    32    1
    10    30    33    1
    11    23     1    1
    12     1     2   am
    13     2     3    2
    14     2     4    1
    15     4     5    1
    16     4    34    1
    17    34    35    1
    18    35    36   am
    19    35    37    2
    20     4     6    1
    21     6     7    1
    22     7     9    1
    23     9    10   ar
    24    10    11   ar
    25    11    12   ar
    26    12    13   ar
    27    13    14    1
    28    13    15   ar
    29     7     8    1
    30     8    16    1
    31    16    17   ar
    32    17    18   ar
    33    18    19   ar
    34    19    20    1
    35    19    21   ar
    36    21    22   ar
    37     8     1    1
    38    22    16   ar
    39    15     9   ar
    40    36    38    1
    41    36    39    1
@<TRIPOS>MOLECULE
*****
 39 41 0 0 0
SMALL
GASTEIGER

@<TRIPOS>ATOM
      1 N          63.5350   85.2247   12.5921 N.am    1  UNL1       -0.2770
      2 C          64.1682   85.4580   13.9317 C.2     1  UNL1        0.2254
      3 O          64.7682   84.3098   14.6878 O.2     1  UNL1       -0.2749
      4 C          64.2016   86.8394   14.5151 C.3     1  UNL1        0.0780
      5 C          64.8969   86.0793   15.6054 C.3     1  UNL1        0.0096
      6 C          63.6016   87.9876   13.7590 C.3     1  UNL1        0.0154
      7 C          62.9684   87.7543   12.4195 C.3     1  UNL1        0.0452
      8 C          62.9350   86.3729   11.8360 C.3     1  UNL1        0.1018
      9 C          62.3684   88.9025   11.6633 C.ar    1  UNL1       -0.0197
     10 C          63.1750   89.6163   10.6194 C.ar    1  UNL1       -0.0042
     11 C          62.5751   90.7645    9.8632 C.ar    1  UNL1        0.0005
     12 C          61.1685   91.1989   10.1510 C.ar    1  UNL1        0.0114
     13 C          60.3618   90.4850   11.1950 C.ar    1  UNL1        0.0574
     14 CL         58.9552   90.9194   11.4828 Cl      1  UNL1       -0.0823
     15 C          60.9618   89.3369   11.9511 C.ar    1  UNL1        0.0072
     16 C          62.3017   86.1396   10.4963 C.ar    1  UNL1       -0.0039
     17 C          63.1210   85.5947    9.3642 C.ar    1  UNL1       -0.0018
     18 C          62.4878   85.3614    8.0246 C.ar    1  UNL1        0.0111
     19 C          61.0352   85.6731    7.8171 C.ar    1  UNL1        0.0577
     20 CL         60.4020   85.4399    6.4775 Cl      1  UNL1       -0.0822
     21 C          60.2159   86.2180    8.9493 C.ar    1  UNL1        0.0111
     22 C          60.8493   86.4513   10.2889 C.ar    1  UNL1       -0.0018
     23 C          63.5016   83.8432   12.0086 C.3     1  UNL1        0.0991
     24 C          64.5992   82.5605   10.0338 C.3     1  UNL1        0.0018
     25 C          64.7228   83.2800   11.3442 C.3     1  UNL1        0.0216
     26 C          62.2471   83.0249   12.0896 C.3     1  UNL1        0.1703
     27 S          62.2210   81.7717   12.9133 S.O2    1  UNL1       -0.0115
     28 O          62.4198   80.9521   11.6728 O.2     1  UNL1       -0.1730
     29 O          62.0223   82.5912   14.1539 O.2     1  UNL1       -0.1730
     30 C          62.1949   80.5184   13.7371 C.3     1  UNL1        0.1108
     31 C          60.7211   80.6925   13.9553 C.3     1  UNL1        0.0236
     32 C          63.6687   80.3442   13.5189 C.3     1  UNL1        0.0236
     33 C          62.1688   79.2651   14.5609 C.3     1  UNL1        0.0236
     34 C          64.4764   87.9569   15.4773 C.3     1  UNL1        0.0934
     35 C          63.3609   88.5284   16.3013 C.2     1  UNL1        0.2198
     36 N          63.2078   90.0152   16.4280 N.am    1  UNL1       -0.3288
     37 O          62.3986   87.6132   16.9987 O.2     1  UNL1       -0.2753
     38 H          63.8394   90.6159   15.9703 H       1  UNL1        0.1449
     39 H          62.4756   90.3903   16.9688 H       1  UNL1        0.1449
@<TRIPOS>BOND
     1    24    25    1
     2    23    25    1
     3    23    26    1
     4    26    27    1
     5    27    28    2
     6    27    29    2
     7    27    30    1
     8    30    31    1
     9    30    32    1
    10    30    33    1
    11    23     1    1
    12     1     2   am
    13     2     3    2
    14     2     4    1
    15     4     5    1
    16     4    34    1
    17    34    35    1
    18    35    36   am
    19    35    37    2
    20     4     6    1
    21     6     7    1
    22     7     9    1
    23     9    10   ar
    24    10    11   ar
    25    11    12   ar
    26    12    13   ar
    27    13    14    1
    28    13    15   ar
    29     7     8    1
    30     8    16    1
    31    16    17   ar
    32    17    18   ar
    33    18    19   ar
    34    19    20    1
    35    19    21   ar
    36    21    22   ar
    37     8     1    1
    38    22    16   ar
    39    15     9   ar
    40    36    38    1
    41    36    39    1
@<TRIPOS>MOLECULE
*****
 39 41 0 0 0
SMALL
GASTEIGER

@<TRIPOS>ATOM
      1 N          63.0539   90.1754   11.9124 N.am    1  UNL1       -0.2770
      2 C          63.2441   91.0343   10.6975 C.2     1  UNL1        0.2254
      3 O          62.4301   90.7792    9.4636 O.2     1  UNL1       -0.2749
      4 C          64.2484   92.1484   10.7164 C.3     1  UNL1        0.0780
      5 C          63.7193   92.2982    9.3208 C.3     1  UNL1        0.0096
      6 C          65.0624   92.4035   11.9502 C.3     1  UNL1        0.0154
      7 C          64.8721   91.5446   13.1651 C.3     1  UNL1        0.0452
      8 C          63.8679   90.4306   13.1462 C.3     1  UNL1        0.1018
      9 C          65.6861   91.7997   14.3989 C.ar    1  UNL1       -0.0197
     10 C          65.0020   92.0593   15.7083 C.ar    1  UNL1       -0.0042
     11 C          65.8160   92.3145   16.9422 C.ar    1  UNL1        0.0005
     12 C          67.3141   92.3100   16.8666 C.ar    1  UNL1        0.0114
     13 C          67.9982   92.0504   15.5571 C.ar    1  UNL1        0.0574
     14 CL         69.4963   92.0459   15.4815 Cl      1  UNL1       -0.0823
     15 C          67.1842   91.7953   14.3233 C.ar    1  UNL1        0.0072
     16 C          63.6776   89.5716   14.3612 C.ar    1  UNL1       -0.0039
     17 C          64.3080   88.2120   14.4246 C.ar    1  UNL1       -0.0018
     18 C          64.1178   87.3531   15.6395 C.ar    1  UNL1        0.0111
     19 C          63.2972   87.8537   16.7910 C.ar    1  UNL1        0.0577
     20 CL         63.1070   86.9948   18.0059 Cl      1  UNL1       -0.0822
     21 C          62.6668   89.2134   16.7276 C.ar    1  UNL1        0.0111
     22 C          62.8570   90.0723   15.5126 C.ar    1  UNL1       -0.0018
     23 C          62.0496   89.0613   11.8935 C.3     1  UNL1        0.0991
     24 C          59.7548   90.2121   11.4940 C.3     1  UNL1        0.0018
     25 C          60.6346   89.3198   12.3186 C.3     1  UNL1        0.0216
     26 C          62.4604   87.6887   11.4495 C.3     1  UNL1        0.1703
     27 S          61.8372   87.0771   10.2299 S.O2    1  UNL1       -0.0115
     28 O          62.6926   87.9465    9.3567 O.2     1  UNL1       -0.1730
     29 O          60.9817   86.2078   11.1030 O.2     1  UNL1       -0.1730
     30 C          61.2139   86.4655    9.0102 C.3     1  UNL1        0.1108
     31 C          59.9300   87.1822    9.3070 C.3     1  UNL1        0.0236
     32 C          62.4978   85.7488    8.7135 C.3     1  UNL1        0.0236
     33 C          60.5906   85.8539    7.7906 C.3     1  UNL1        0.0236
     34 C          65.0688   93.3145   10.2505 C.3     1  UNL1        0.0934
     35 C          66.5657   93.2578   10.3302 C.2     1  UNL1        0.2198
     36 N          67.3391   94.4626   10.7777 N.am    1  UNL1       -0.3288
     37 O          67.2891   91.9963    9.9624 O.2     1  UNL1       -0.2753
     38 H          66.8643   95.2906   11.0191 H       1  UNL1        0.1449
     39 H          68.3215   94.4254   10.8299 H       1  UNL1        0.1449
@<TRIPOS>BOND
     1    24    25    1
     2    23    25    1
     3    23    26    1
     4    26    27    1
     5    27    28    2
     6    27    29    2
     7    27    30    1
     8    30    31    1
     9    30    32    1
    10    30    33    1
    11    23     1    1
    12     1     2   am
    13     2     3    2
    14     2     4    1
    15     4     5    1
    16     4    34    1
    17    34    35    1
    18    35    36   am
    19    35    37    2
    20     4     6    1
    21     6     7    1
    22     7     9    1
    23     9    10   ar
    24    10    11   ar
    25    11    12   ar
    26    12    13   ar
    27    13    14    1
    28    13    15   ar
    29     7     8    1
    30     8    16    1
    31    16    17   ar
    32    17    18   ar
    33    18    19   ar
    34    19    20    1
    35    19    21   ar
    36    21    22   ar
    37     8     1    1
    38    22    16   ar
    39    15     9   ar
    40    36    38    1
    41    36    39    1
@<TRIPOS>MOLECULE
*****
 39 41 0 0 0
SMALL
GASTEIGER

@<TRIPOS>ATOM
      1 N          61.6937   94.5924   -3.6467 N.am    1  UNL1       -0.2770
      2 C          61.7747   94.7917   -5.1311 C.2     1  UNL1        0.2254
      3 O          63.0723   95.1998   -5.7634 O.2     1  UNL1       -0.2749
      4 C          60.5581   94.5829   -5.9834 C.3     1  UNL1        0.0780
      5 C          61.5532   94.9644   -7.0389 C.3     1  UNL1        0.0096
      6 C          59.2606   94.1748   -5.3511 C.3     1  UNL1        0.0154
      7 C          59.1796   93.9755   -3.8667 C.3     1  UNL1        0.0452
      8 C          60.3962   94.1843   -3.0144 C.3     1  UNL1        0.1018
      9 C          57.8820   93.5674   -3.2344 C.ar    1  UNL1       -0.0197
     10 C          57.5516   92.1134   -3.0716 C.ar    1  UNL1       -0.0042
     11 C          56.2540   91.7053   -2.4392 C.ar    1  UNL1        0.0005
     12 C          55.2868   92.7513   -1.9698 C.ar    1  UNL1        0.0114
     13 C          55.6172   94.2054   -2.1326 C.ar    1  UNL1        0.0574
     14 CL         54.6501   95.2515   -1.6632 Cl      1  UNL1       -0.0823
     15 C          56.9148   94.6135   -2.7649 C.ar    1  UNL1        0.0072
     16 C          60.3151   93.9850   -1.5299 C.ar    1  UNL1       -0.0039
     17 C          59.7754   95.0773   -0.6549 C.ar    1  UNL1       -0.0018
     18 C          59.6943   94.8781    0.8296 C.ar    1  UNL1        0.0111
     19 C          60.1531   93.5865    1.4391 C.ar    1  UNL1        0.0577
     20 CL         60.0720   93.3873    2.9236 Cl      1  UNL1       -0.0822
     21 C          60.6929   92.4942    0.5641 C.ar    1  UNL1        0.0111
     22 C          60.7739   92.6935   -0.9204 C.ar    1  UNL1       -0.0018
     23 C          62.9103   94.8012   -2.7944 C.3     1  UNL1        0.0991
     24 C          64.1682   92.6519   -3.5349 C.3     1  UNL1        0.0018
     25 C          63.8056   93.6427   -2.4686 C.3     1  UNL1        0.0216
     26 C          63.2316   96.1685   -2.2680 C.3     1  UNL1        0.1703
     27 S          63.9724   96.3184   -0.9723 S.O2    1  UNL1       -0.0115
     28 O          62.7616   95.8434   -0.2251 O.2     1  UNL1       -0.1730
     29 O          65.1832   96.7933   -1.7195 O.2     1  UNL1       -0.1730
     30 C          64.7132   96.4682    0.3234 C.3     1  UNL1        0.1108
     31 C          63.4564   96.1518    1.0785 C.3     1  UNL1        0.0236
     32 C          65.9700   96.7847   -0.4318 C.3     1  UNL1        0.0236
     33 C          65.4540   96.6181    1.6190 C.3     1  UNL1        0.0236
     34 C          59.6872   94.5066   -7.2022 C.3     1  UNL1        0.0934
     35 C          58.4575   95.3601   -7.2999 C.2     1  UNL1        0.2198
     36 N          58.5843   96.8532   -7.3664 N.am    1  UNL1       -0.3288
     37 O          57.1011   94.7205   -7.3311 O.2     1  UNL1       -0.2753
     38 H          59.4746   97.2731   -7.3459 H       1  UNL1        0.1449
     39 H          57.7773   97.4134   -7.4305 H       1  UNL1        0.1449
@<TRIPOS>BOND
     1    24    25    1
     2    23    25    1
     3    23    26    1
     4    26    27    1
     5    27    28    2
     6    27    29    2
     7    27    30    1
     8    30    31    1
     9    30    32    1
    10    30    33    1
    11    23     1    1
    12     1     2   am
    13     2     3    2
    14     2     4    1
    15     4     5    1
    16     4    34    1
    17    34    35    1
    18    35    36   am
    19    35    37    2
    20     4     6    1
    21     6     7    1
    22     7     9    1
    23     9    10   ar
    24    10    11   ar
    25    11    12   ar
    26    12    13   ar
    27    13    14    1
    28    13    15   ar
    29     7     8    1
    30     8    16    1
    31    16    17   ar
    32    17    18   ar
    33    18    19   ar
    34    19    20    1
    35    19    21   ar
    36    21    22   ar
    37     8     1    1
    38    22    16   ar
    39    15     9   ar
    40    36    38    1
    41    36    39    1
@<TRIPOS>MOLECULE
*****
 39 41 0 0 0
SMALL
GASTEIGER

@<TRIPOS>ATOM
      1 N          60.5882   94.6128   -4.3004 N.am    1  UNL1       -0.2770
      2 C          59.2738   94.2100   -4.9004 C.2     1  UNL1        0.2254
      3 O          59.0941   94.2217   -6.3896 O.2     1  UNL1       -0.2749
      4 C          58.1391   93.7953   -4.0114 C.3     1  UNL1        0.0780
      5 C          57.4867   93.6450   -5.3536 C.3     1  UNL1        0.0096
      6 C          58.3187   93.7835   -2.5222 C.3     1  UNL1        0.0154
      7 C          59.6331   94.1864   -1.9222 C.3     1  UNL1        0.0452
      8 C          60.7678   94.6010   -2.8113 C.3     1  UNL1        0.1018
      9 C          59.8128   94.1746   -0.4330 C.ar    1  UNL1       -0.0197
     10 C          59.9264   92.8700    0.2984 C.ar    1  UNL1       -0.0042
     11 C          60.1061   92.8582    1.7876 C.ar    1  UNL1        0.0005
     12 C          60.1722   94.1510    2.5453 C.ar    1  UNL1        0.0114
     13 C          60.0586   95.4557    1.8138 C.ar    1  UNL1        0.0574
     14 CL         60.1247   96.7486    2.5715 Cl      1  UNL1       -0.0823
     15 C          59.8789   95.4674    0.3247 C.ar    1  UNL1        0.0072
     16 C          62.0823   95.0039   -2.2111 C.ar    1  UNL1       -0.0039
     17 C          62.4673   96.4524   -2.1524 C.ar    1  UNL1       -0.0018
     18 C          63.7817   96.8553   -1.5523 C.ar    1  UNL1        0.0111
     19 C          64.7110   95.8096   -1.0109 C.ar    1  UNL1        0.0577
     20 CL         66.0254   96.2125   -0.4108 Cl      1  UNL1       -0.0822
     21 C          64.3259   94.3611   -1.0697 C.ar    1  UNL1        0.0111
     22 C          63.0115   93.9582   -1.6698 C.ar    1  UNL1       -0.0018
     23 C          61.7229   95.0275   -5.1895 C.3     1  UNL1        0.0991
     24 C          61.2316   96.8291   -6.9958 C.3     1  UNL1        0.0018
     25 C          61.8196   96.4450   -5.6704 C.3     1  UNL1        0.0216
     26 C          62.7610   94.0246   -5.5977 C.3     1  UNL1        0.1703
     27 S          64.1196   94.4868   -6.0343 S.O2    1  UNL1       -0.0115
     28 O          63.7080   94.3410   -7.4693 O.2     1  UNL1       -0.1730
     29 O          64.5312   94.6326   -4.5992 O.2     1  UNL1       -0.1730
     30 C          65.4781   94.9490   -6.4709 C.3     1  UNL1        0.1108
     31 C          65.5688   93.7887   -7.4172 C.3     1  UNL1        0.0236
     32 C          65.3875   96.1093   -5.5246 C.3     1  UNL1        0.0236
     33 C          66.8367   95.4112   -6.9075 C.3     1  UNL1        0.0236
     34 C          56.7778   93.3284   -3.5885 C.3     1  UNL1        0.0934
     35 C          56.5742   91.9078   -3.1521 C.2     1  UNL1        0.2198
     36 N          57.2086   90.7882   -3.9228 N.am    1  UNL1       -0.3288
     37 O          55.7361   91.6068   -1.9451 O.2     1  UNL1       -0.2753
     38 H          57.7587   90.9858   -4.7150 H       1  UNL1        0.1449
     39 H          57.0750   89.8558   -3.6364 H       1  UNL1        0.1449
@<TRIPOS>BOND
     1    24    25    1
     2    23    25    1
     3    23    26    1
     4    26    27    1
     5    27    28    2
     6    27    29    2
     7    27    30    1
     8    30    31    1
     9    30    32    1
    10    30    33    1
    11    23     1    1
    12     1     2   am
    13     2     3    2
    14     2     4    1
    15     4     5    1
    16     4    34    1
    17    34    35    1
    18    35    36   am
    19    35    37    2
    20     4     6    1
    21     6     7    1
    22     7     9    1
    23     9    10   ar
    24    10    11   ar
    25    11    12   ar
    26    12    13   ar
    27    13    14    1
    28    13    15   ar
    29     7     8    1
    30     8    16    1
    31    16    17   ar
    32    17    18   ar
    33    18    19   ar
    34    19    20    1
    35    19    21   ar
    36    21    22   ar
    37     8     1    1
    38    22    16   ar
    39    15     9   ar
    40    36    38    1
    41    36    39    1
@<TRIPOS>MOLECULE
*****
 39 41 0 0 0
SMALL
GASTEIGER

@<TRIPOS>ATOM
      1 N          63.6518   85.9615   13.2137 N.am    1  UNL1       -0.2770
      2 C          63.6899   87.4209   13.5582 C.2     1  UNL1        0.2254
      3 O          64.2013   87.8623   14.8975 O.2     1  UNL1       -0.2749
      4 C          63.2165   88.4389   12.5635 C.3     1  UNL1        0.0780
      5 C          63.6111   89.3428   13.6936 C.3     1  UNL1        0.0096
      6 C          62.7050   87.9976   11.2243 C.3     1  UNL1        0.0154
      7 C          62.6670   86.5382   10.8797 C.3     1  UNL1        0.0452
      8 C          63.1404   85.5202   11.8745 C.3     1  UNL1        0.1018
      9 C          62.1555   86.0968    9.5404 C.ar    1  UNL1       -0.0197
     10 C          63.0521   85.3368    8.6085 C.ar    1  UNL1       -0.0042
     11 C          62.5406   84.8954    7.2692 C.ar    1  UNL1        0.0005
     12 C          61.1326   85.2140    6.8619 C.ar    1  UNL1        0.0114
     13 C          60.2360   85.9740    7.7940 C.ar    1  UNL1        0.0574
     14 CL         58.8279   86.2927    7.3867 Cl      1  UNL1       -0.0823
     15 C          60.7475   86.4154    9.1332 C.ar    1  UNL1        0.0072
     16 C          63.1023   84.0607   11.5299 C.ar    1  UNL1       -0.0039
     17 C          62.1281   83.1524   12.2198 C.ar    1  UNL1       -0.0018
     18 C          62.0900   81.6930   11.8752 C.ar    1  UNL1        0.0111
     19 C          63.0262   81.1419   10.8408 C.ar    1  UNL1        0.0577
     20 CL         62.9881   79.6825   10.4963 Cl      1  UNL1       -0.0822
     21 C          64.0004   82.0502   10.1509 C.ar    1  UNL1        0.0111
     22 C          64.0384   83.5097   10.4955 C.ar    1  UNL1       -0.0018
     23 C          64.1252   84.9434   14.2084 C.3     1  UNL1        0.0991
     24 C          66.6688   85.1485   14.6965 C.3     1  UNL1        0.0018
     25 C          65.5156   84.3891   14.1104 C.3     1  UNL1        0.0216
     26 C          63.2083   84.4797   15.3012 C.3     1  UNL1        0.1703
     27 S          62.9188   85.3764   16.4683 S.O2    1  UNL1       -0.0115
     28 O          61.4534   85.3115   16.1547 O.2     1  UNL1       -0.1730
     29 O          64.3842   85.4414   16.7819 O.2     1  UNL1       -0.1730
     30 C          62.6293   86.2731   17.6354 C.3     1  UNL1        0.1108
     31 C          63.8906   85.8112   18.3031 C.3     1  UNL1        0.0236
     32 C          61.3680   86.7350   16.9677 C.3     1  UNL1        0.0236
     33 C          62.3398   87.1698   18.8025 C.3     1  UNL1        0.0236
     34 C          62.8801   89.7709   11.9613 C.3     1  UNL1        0.0934
     35 C          61.4678   90.0770   11.5591 C.2     1  UNL1        0.2198
     36 N          61.1902   90.7436   10.2444 N.am    1  UNL1       -0.3288
     37 O          60.3332   89.7164   12.4716 O.2     1  UNL1       -0.2753
     38 H          61.9349   90.9803    9.6455 H       1  UNL1        0.1449
     39 H          60.2633   90.9445    9.9804 H       1  UNL1        0.1449
@<TRIPOS>BOND
     1    24    25    1
     2    23    25    1
     3    23    26    1
     4    26    27    1
     5    27    28    2
     6    27    29    2
     7    27    30    1
     8    30    31    1
     9    30    32    1
    10    30    33    1
    11    23     1    1
    12     1     2   am
    13     2     3    2
    14     2     4    1
    15     4     5    1
    16     4    34    1
    17    34    35    1
    18    35    36   am
    19    35    37    2
    20     4     6    1
    21     6     7    1
    22     7     9    1
    23     9    10   ar
    24    10    11   ar
    25    11    12   ar
    26    12    13   ar
    27    13    14    1
    28    13    15   ar
    29     7     8    1
    30     8    16    1
    31    16    17   ar
    32    17    18   ar
    33    18    19   ar
    34    19    20    1
    35    19    21   ar
    36    21    22   ar
    37     8     1    1
    38    22    16   ar
    39    15     9   ar
    40    36    38    1
    41    36    39    1
@<TRIPOS>MOLECULE
*****
 39 41 0 0 0
SMALL
GASTEIGER

@<TRIPOS>ATOM
      1 N          64.5743   91.8194   11.6958 N.am    1  UNL1       -0.2770
      2 C          63.5872   91.4953   10.6139 C.2     1  UNL1        0.2254
      3 O          63.5708   92.2998    9.3480 O.2     1  UNL1       -0.2749
      4 C          62.6164   90.3667   10.7979 C.3     1  UNL1        0.0780
      5 C          62.2145   90.8358    9.4310 C.3     1  UNL1        0.0096
      6 C          62.6328   89.5622   12.0638 C.3     1  UNL1        0.0154
      7 C          63.6198   89.8863   13.1457 C.3     1  UNL1        0.0452
      8 C          64.5906   91.0149   12.9617 C.3     1  UNL1        0.1018
      9 C          63.6362   89.0818   14.4116 C.ar    1  UNL1       -0.0197
     10 C          63.1428   89.6880   15.6919 C.ar    1  UNL1       -0.0042
     11 C          63.1591   88.8834   16.9578 C.ar    1  UNL1        0.0005
     12 C          63.6690   87.4728   16.9435 C.ar    1  UNL1        0.0114
     13 C          64.1624   86.8667   15.6631 C.ar    1  UNL1        0.0574
     14 CL         64.6722   85.4560   15.6487 Cl      1  UNL1       -0.0823
     15 C          64.1460   87.6712   14.3973 C.ar    1  UNL1        0.0072
     16 C          65.5777   91.3391   14.0437 C.ar    1  UNL1       -0.0039
     17 C          67.0251   90.9867   13.8685 C.ar    1  UNL1       -0.0018
     18 C          68.0122   91.3108   14.9504 C.ar    1  UNL1        0.0111
     19 C          67.5519   91.9873   16.2076 C.ar    1  UNL1        0.0577
     20 CL         68.5390   92.3114   17.2895 Cl      1  UNL1       -0.0822
     21 C          66.1044   92.3397   16.3828 C.ar    1  UNL1        0.0111
     22 C          65.1173   92.0156   15.3008 C.ar    1  UNL1       -0.0018
     23 C          65.5450   92.9481   11.5119 C.3     1  UNL1        0.0991
     24 C          66.7581   94.3774   13.3105 C.3     1  UNL1        0.0018
     25 C          65.5457   94.1007   12.4717 C.3     1  UNL1        0.0216
     26 C          66.5150   92.9241   10.3680 C.3     1  UNL1        0.1703
     27 S          66.8939   94.2014    9.6790 S.O2    1  UNL1       -0.0115
     28 O          68.3278   93.7618    9.6524 O.2     1  UNL1       -0.1730
     29 O          65.4601   94.6411    9.7056 O.2     1  UNL1       -0.1730
     30 C          67.2728   95.4788    8.9900 C.3     1  UNL1        0.1108
     31 C          67.6328   94.7063    7.7557 C.3     1  UNL1        0.0236
     32 C          66.9129   96.2514   10.2244 C.3     1  UNL1        0.0236
     33 C          67.6517   96.7562    8.3010 C.3     1  UNL1        0.0236
     34 C          61.5061   89.4010   10.5071 C.3     1  UNL1        0.0934
     35 C          60.1802   89.5545   11.1915 C.2     1  UNL1        0.2198
     36 N          59.5509   88.3797   11.8798 N.am    1  UNL1       -0.3288
     37 O          59.4835   90.8829   11.1876 O.2     1  UNL1       -0.2753
     38 H          60.0082   87.5078   11.8823 H       1  UNL1        0.1449
     39 H          58.6807   88.4805   12.3290 H       1  UNL1        0.1449
@<TRIPOS>BOND
     1    24    25    1
     2    23    25    1
     3    23    26    1
     4    26    27    1
     5    27    28    2
     6    27    29    2
     7    27    30    1
     8    30    31    1
     9    30    32    1
    10    30    33    1
    11    23     1    1
    12     1     2   am
    13     2     3    2
    14     2     4    1
    15     4     5    1
    16     4    34    1
    17    34    35    1
    18    35    36   am
    19    35    37    2
    20     4     6    1
    21     6     7    1
    22     7     9    1
    23     9    10   ar
    24    10    11   ar
    25    11    12   ar
    26    12    13   ar
    27    13    14    1
    28    13    15   ar
    29     7     8    1
    30     8    16    1
    31    16    17   ar
    32    17    18   ar
    33    18    19   ar
    34    19    20    1
    35    19    21   ar
    36    21    22   ar
    37     8     1    1
    38    22    16   ar
    39    15     9   ar
    40    36    38    1
    41    36    39    1
