@<TRIPOS>MOLECULE
*****
 31 35 0 0 0
SMALL
GASTEIGER

@<TRIPOS>ATOM
      1 C          61.4165   87.6398   10.9671 C.3     1  UNL1        0.1688
      2 C          60.4930   88.8116   11.1215 C.3     1  UNL1        0.2354
      3 O          61.2456   89.9062   11.8183 O.2     1  UNL1       -0.4580
      4 C          62.6342   89.4108   12.0946 C.2     1  UNL1        0.2207
      5 N          62.7399   88.0101   11.5685 N.2     1  UNL1       -0.2318
      6 F          64.1222   82.4142    9.7955 F       1  UNL1       -0.2042
      7 C          63.4458   83.7206   10.0884 C.ar    1  UNL1        0.1401
      8 C          63.2185   84.7114    8.9854 C.ar    1  UNL1        0.0294
      9 C          62.5421   86.0178    9.2783 C.ar    1  UNL1        0.0000
     10 C          62.0929   86.3334   10.6742 C.ar    1  UNL1        0.0034
     11 C          62.3202   85.3426   11.7772 C.ar    1  UNL1        0.0000
     12 C          62.9966   84.0362   11.4843 C.ar    1  UNL1        0.0294
     13 C          63.7256   90.1810   12.7771 C.ar    1  UNL1        0.0528
     14 C          64.2696   89.7057   14.0917 C.ar    1  UNL1        0.0046
     15 C          65.3609   90.4758   14.7743 C.ar    1  UNL1        0.0002
     16 C          65.9083   91.7212   14.1423 C.ar    1  UNL1        0.0001
     17 C          65.3642   92.1965   12.8277 C.ar    1  UNL1        0.0002
     18 C          64.2728   91.4263   12.1450 C.ar    1  UNL1        0.0046
     19 C          66.9996   92.4914   14.8248 C.ar    1  UNL1        0.0022
     20 C          67.1052   93.9749   14.6301 C.ar    1  UNL1        0.0001
     21 C          68.1965   94.7452   15.3126 C.ar    1  UNL1        0.0023
     22 C          69.1822   94.0317   16.1898 C.ar    1  UNL1        0.0296
     23 C          69.0766   92.5482   16.3844 C.ar    1  UNL1        0.1401
     24 F          70.0623   91.8348   17.2616 F       1  UNL1       -0.2042
     25 C          67.9853   91.7780   15.7019 C.ar    1  UNL1        0.0296
     26 C          60.2346   86.9963   10.3045 C.3     1  UNL1        0.1595
     27 N          59.7295   87.5246    8.9946 N.ar    1  UNL1       -0.2277
     28 C          58.9353   86.7554    7.9810 C.ar    1  UNL1        0.1973
     29 N          58.6449   87.6703    6.8283 N.ar    1  UNL1       -0.2007
     30 C          59.2597   89.0049    7.1295 C.ar    1  UNL1        0.2210
     31 N          59.9301   88.9149    8.4684 N.ar    1  UNL1       -0.1451
@<TRIPOS>BOND
     1     6     7    1
     2     7     8   ar
     3     8     9   ar
     4     9    10   ar
     5    10     1    1
     6     1    26    1
     7    26    27    1
     8    27    28   ar
     9    28    29   ar
    10    29    30   ar
    11    30    31   ar
    12     1     2    1
    13     2     3    1
    14     3     4    1
    15     4    13    1
    16    13    14   ar
    17    14    15   ar
    18    15    16   ar
    19    16    19    1
    20    19    20   ar
    21    20    21   ar
    22    21    22   ar
    23    22    23   ar
    24    23    24    1
    25    23    25   ar
    26    16    17   ar
    27    17    18   ar
    28     4     5    2
    29    10    11   ar
    30    11    12   ar
    31    12     7   ar
    32     5     1    1
    33    31    27   ar
    34    18    13   ar
    35    25    19   ar
@<TRIPOS>MOLECULE
*****
 31 35 0 0 0
SMALL
GASTEIGER

@<TRIPOS>ATOM
      1 C          65.2285   91.3966   14.2241 C.3     1  UNL1        0.1688
      2 C          64.6914   91.2422   15.6161 C.3     1  UNL1        0.2354
      3 O          64.1843   89.8383   15.7642 O.2     1  UNL1       -0.4580
      4 C          64.4081   89.1250   14.4638 C.2     1  UNL1        0.2207
      5 N          65.0534   90.0881   13.5120 N.2     1  UNL1       -0.2318
      6 F          67.6283   93.1865    9.0244 F       1  UNL1       -0.2042
      7 C          67.0284   92.7391   10.3244 C.ar    1  UNL1        0.1401
      8 C          65.5528   92.8766   10.5561 C.ar    1  UNL1        0.0294
      9 C          64.9529   92.4291   11.8561 C.ar    1  UNL1        0.0000
     10 C          65.8285   91.8441   12.9242 C.ar    1  UNL1        0.0034
     11 C          67.3040   91.7065   12.6925 C.ar    1  UNL1        0.0000
     12 C          67.9040   92.1540   11.3925 C.ar    1  UNL1        0.0294
     13 C          64.0494   87.6991   14.1673 C.ar    1  UNL1        0.0528
     14 C          64.3118   86.6319   15.1882 C.ar    1  UNL1        0.0046
     15 C          63.9532   85.2059   14.8918 C.ar    1  UNL1        0.0002
     16 C          63.3321   84.8470   13.5744 C.ar    1  UNL1        0.0001
     17 C          63.0697   85.9142   12.5535 C.ar    1  UNL1        0.0002
     18 C          63.4283   87.3403   12.8499 C.ar    1  UNL1        0.0046
     19 C          62.9735   83.4210   13.2779 C.ar    1  UNL1        0.0022
     20 C          62.3690   82.5616   14.3483 C.ar    1  UNL1        0.0001
     21 C          62.0103   81.1356   14.0519 C.ar    1  UNL1        0.0023
     22 C          62.2561   80.5691   12.6849 C.ar    1  UNL1        0.0296
     23 C          62.8606   81.4285   11.6145 C.ar    1  UNL1        0.1401
     24 F          63.1064   80.8620   10.2475 F       1  UNL1       -0.2042
     25 C          63.2193   82.8545   11.9109 C.ar    1  UNL1        0.0296
     26 C          65.5291   92.7986   14.6646 C.3     1  UNL1        0.1595
     27 N          66.8787   93.1354   15.2259 N.ar    1  UNL1       -0.2277
     28 C          67.6695   92.2954   16.1845 C.ar    1  UNL1        0.1973
     29 N          68.9540   93.0122   16.4783 N.ar    1  UNL1       -0.2007
     30 C          68.9570   94.2953   15.7013 C.ar    1  UNL1        0.2210
     31 N          67.6743   94.3715   14.9273 N.ar    1  UNL1       -0.1451
@<TRIPOS>BOND
     1     6     7    1
     2     7     8   ar
     3     8     9   ar
     4     9    10   ar
     5    10     1    1
     6     1    26    1
     7    26    27    1
     8    27    28   ar
     9    28    29   ar
    10    29    30   ar
    11    30    31   ar
    12     1     2    1
    13     2     3    1
    14     3     4    1
    15     4    13    1
    16    13    14   ar
    17    14    15   ar
    18    15    16   ar
    19    16    19    1
    20    19    20   ar
    21    20    21   ar
    22    21    22   ar
    23    22    23   ar
    24    23    24    1
    25    23    25   ar
    26    16    17   ar
    27    17    18   ar
    28     4     5    2
    29    10    11   ar
    30    11    12   ar
    31    12     7   ar
    32     5     1    1
    33    31    27   ar
    34    18    13   ar
    35    25    19   ar
@<TRIPOS>MOLECULE
*****
 31 35 0 0 0
SMALL
GASTEIGER

@<TRIPOS>ATOM
      1 C          65.7202   93.1268   12.8418 C.3     1  UNL1        0.1688
      2 C          65.3483   92.3770   14.0866 C.3     1  UNL1        0.2354
      3 O          64.4375   91.2513   13.6950 O.2     1  UNL1       -0.4580
      4 C          64.2464   91.3054   12.2082 C.2     1  UNL1        0.2207
      5 N          65.0392   92.4645   11.6809 N.2     1  UNL1       -0.2318
      6 F          67.8710   96.8422    8.6502 F       1  UNL1       -0.2042
      7 C          67.3333   95.9133    9.6981 C.ar    1  UNL1        0.1401
      8 C          67.4388   94.4290    9.5101 C.ar    1  UNL1        0.0294
      9 C          66.9011   93.5001   10.5580 C.ar    1  UNL1        0.0000
     10 C          66.2579   94.0556   11.7939 C.ar    1  UNL1        0.0034
     11 C          66.1524   95.5400   11.9820 C.ar    1  UNL1        0.0000
     12 C          66.6901   96.4689   10.9341 C.ar    1  UNL1        0.0294
     13 C          63.4096   90.3655   11.3921 C.ar    1  UNL1        0.0528
     14 C          62.8003   90.8306   10.1027 C.ar    1  UNL1        0.0046
     15 C          61.9634   89.8908    9.2865 C.ar    1  UNL1        0.0002
     16 C          61.7358   88.4856    9.7596 C.ar    1  UNL1        0.0001
     17 C          62.3451   88.0205   11.0490 C.ar    1  UNL1        0.0002
     18 C          63.1820   88.9604   11.8652 C.ar    1  UNL1        0.0046
     19 C          60.8989   87.5457    8.9435 C.ar    1  UNL1        0.0022
     20 C          59.4141   87.7424    8.8610 C.ar    1  UNL1        0.0001
     21 C          58.5772   86.8025    8.0449 C.ar    1  UNL1        0.0023
     22 C          59.2251   85.6658    7.3112 C.ar    1  UNL1        0.0296
     23 C          60.7098   85.4691    7.3937 C.ar    1  UNL1        0.1401
     24 F          61.3577   84.3325    6.6600 F       1  UNL1       -0.2042
     25 C          61.5468   86.4090    8.2098 C.ar    1  UNL1        0.0296
     26 C          66.5136   93.9832   13.7836 C.3     1  UNL1        0.1595
     27 N          67.6215   93.3789   14.5943 N.ar    1  UNL1       -0.2277
     28 C          67.7745   93.4688   16.0838 C.ar    1  UNL1        0.1973
     29 N          69.0185   92.7240   16.4679 N.ar    1  UNL1       -0.2007
     30 C          69.6345   92.1737   15.2158 C.ar    1  UNL1        0.2210
     31 N          68.7711   92.5784   14.0578 N.ar    1  UNL1       -0.1451
@<TRIPOS>BOND
     1     6     7    1
     2     7     8   ar
     3     8     9   ar
     4     9    10   ar
     5    10     1    1
     6     1    26    1
     7    26    27    1
     8    27    28   ar
     9    28    29   ar
    10    29    30   ar
    11    30    31   ar
    12     1     2    1
    13     2     3    1
    14     3     4    1
    15     4    13    1
    16    13    14   ar
    17    14    15   ar
    18    15    16   ar
    19    16    19    1
    20    19    20   ar
    21    20    21   ar
    22    21    22   ar
    23    22    23   ar
    24    23    24    1
    25    23    25   ar
    26    16    17   ar
    27    17    18   ar
    28     4     5    2
    29    10    11   ar
    30    11    12   ar
    31    12     7   ar
    32     5     1    1
    33    31    27   ar
    34    18    13   ar
    35    25    19   ar
@<TRIPOS>MOLECULE
*****
 31 35 0 0 0
SMALL
GASTEIGER

@<TRIPOS>ATOM
      1 C          60.1158   88.5108    9.0748 C.3     1  UNL1        0.1688
      2 C          59.2312   87.5805    8.2988 C.3     1  UNL1        0.2354
      3 O          58.9683   88.2012    6.9587 O.2     1  UNL1       -0.4580
      4 C          59.6903   89.5149    6.9066 C.2     1  UNL1        0.2207
      5 N          60.3995   89.7063    8.2144 N.2     1  UNL1       -0.2318
      6 F          63.5675   91.3563   13.0733 F       1  UNL1       -0.2042
      7 C          62.7046   90.6449   12.0737 C.ar    1  UNL1        0.1401
      8 C          63.1547   90.5205   10.6483 C.ar    1  UNL1        0.0294
      9 C          62.2918   89.8091    9.6487 C.ar    1  UNL1        0.0000
     10 C          60.9787   89.2222   10.0745 C.ar    1  UNL1        0.0034
     11 C          60.5286   89.3467   11.4999 C.ar    1  UNL1        0.0000
     12 C          61.3915   90.0580   12.4995 C.ar    1  UNL1        0.0294
     13 C          59.7012   90.4696    5.7497 C.ar    1  UNL1        0.0528
     14 C          60.9865   90.7695    5.0369 C.ar    1  UNL1        0.0046
     15 C          60.9975   91.7242    3.8800 C.ar    1  UNL1        0.0002
     16 C          59.7232   92.3791    3.4359 C.ar    1  UNL1        0.0001
     17 C          58.4379   92.0792    4.1487 C.ar    1  UNL1        0.0002
     18 C          58.4269   91.1245    5.3057 C.ar    1  UNL1        0.0046
     19 C          59.7341   93.3338    2.2790 C.ar    1  UNL1        0.0022
     20 C          60.3422   94.6959    2.4365 C.ar    1  UNL1        0.0001
     21 C          60.3532   95.6507    1.2797 C.ar    1  UNL1        0.0023
     22 C          59.7559   95.2433   -0.0346 C.ar    1  UNL1        0.0296
     23 C          59.1478   93.8812   -0.1920 C.ar    1  UNL1        0.1401
     24 F          58.5505   93.4738   -1.5063 F       1  UNL1       -0.2042
     25 C          59.1368   92.9264    0.9648 C.ar    1  UNL1        0.0296
     26 C          60.0125   87.4640   10.1443 C.3     1  UNL1        0.1595
     27 N          61.1142   86.4617   10.3216 N.ar    1  UNL1       -0.2277
     28 C          61.9670   85.8864    9.2300 C.ar    1  UNL1        0.1973
     29 N          62.9365   84.9279    9.8555 N.ar    1  UNL1       -0.2007
     30 C          62.6828   84.9107   11.3338 C.ar    1  UNL1        0.2210
     31 N          61.5566   85.8587   11.6219 N.ar    1  UNL1       -0.1451
@<TRIPOS>BOND
     1     6     7    1
     2     7     8   ar
     3     8     9   ar
     4     9    10   ar
     5    10     1    1
     6     1    26    1
     7    26    27    1
     8    27    28   ar
     9    28    29   ar
    10    29    30   ar
    11    30    31   ar
    12     1     2    1
    13     2     3    1
    14     3     4    1
    15     4    13    1
    16    13    14   ar
    17    14    15   ar
    18    15    16   ar
    19    16    19    1
    20    19    20   ar
    21    20    21   ar
    22    21    22   ar
    23    22    23   ar
    24    23    24    1
    25    23    25   ar
    26    16    17   ar
    27    17    18   ar
    28     4     5    2
    29    10    11   ar
    30    11    12   ar
    31    12     7   ar
    32     5     1    1
    33    31    27   ar
    34    18    13   ar
    35    25    19   ar
@<TRIPOS>MOLECULE
*****
 31 35 0 0 0
SMALL
GASTEIGER

@<TRIPOS>ATOM
      1 C          60.5572   88.7131    9.0682 C.3     1  UNL1        0.1688
      2 C          59.7620   89.9301    9.4380 C.3     1  UNL1        0.2354
      3 O          60.5777   90.7420   10.4001 O.2     1  UNL1       -0.4580
      4 C          61.8769   90.0267   10.6249 C.2     1  UNL1        0.2207
      5 N          61.8642   88.7728    9.8018 N.2     1  UNL1       -0.2318
      6 F          62.7400   83.5705    6.8799 F       1  UNL1       -0.2042
      7 C          62.1943   84.8562    7.4270 C.ar    1  UNL1        0.1401
      8 C          63.0030   85.6597    8.4018 C.ar    1  UNL1        0.0294
      9 C          62.4573   86.9453    8.9488 C.ar    1  UNL1        0.0000
     10 C          61.1029   87.4275    8.5211 C.ar    1  UNL1        0.0034
     11 C          60.2941   86.6240    7.5463 C.ar    1  UNL1        0.0000
     12 C          60.8398   85.3383    6.9993 C.ar    1  UNL1        0.0294
     13 C          62.9928   90.4849   11.5164 C.ar    1  UNL1        0.0528
     14 C          63.1885   89.8484   12.8605 C.ar    1  UNL1        0.0046
     15 C          64.3044   90.3066   13.7520 C.ar    1  UNL1        0.0002
     16 C          65.2247   91.4013   13.2995 C.ar    1  UNL1        0.0001
     17 C          65.0289   92.0378   11.9554 C.ar    1  UNL1        0.0002
     18 C          63.9130   91.5796   11.0638 C.ar    1  UNL1        0.0046
     19 C          66.3406   91.8595   14.1909 C.ar    1  UNL1        0.0022
     20 C          66.0445   92.3165   15.5886 C.ar    1  UNL1        0.0001
     21 C          67.1603   92.7747   16.4801 C.ar    1  UNL1        0.0023
     22 C          68.5723   92.7760   15.9740 C.ar    1  UNL1        0.0296
     23 C          68.8684   92.3190   14.5763 C.ar    1  UNL1        0.1401
     24 F          70.2805   92.3202   14.0701 F       1  UNL1       -0.2042
     25 C          67.7526   91.8608   13.6848 C.ar    1  UNL1        0.0296
     26 C          59.3642   88.3847    8.2202 C.3     1  UNL1        0.1595
     27 N          58.9746   89.2911    7.0904 N.ar    1  UNL1       -0.2277
     28 C          59.9168   90.0550    6.2078 C.ar    1  UNL1        0.1973
     29 N          59.0989   90.8288    5.2167 N.ar    1  UNL1       -0.2007
     30 C          57.6513   90.5432    5.4867 C.ar    1  UNL1        0.2210
     31 N          57.5745   89.5928    6.6448 N.ar    1  UNL1       -0.1451
@<TRIPOS>BOND
     1     6     7    1
     2     7     8   ar
     3     8     9   ar
     4     9    10   ar
     5    10     1    1
     6     1    26    1
     7    26    27    1
     8    27    28   ar
     9    28    29   ar
    10    29    30   ar
    11    30    31   ar
    12     1     2    1
    13     2     3    1
    14     3     4    1
    15     4    13    1
    16    13    14   ar
    17    14    15   ar
    18    15    16   ar
    19    16    19    1
    20    19    20   ar
    21    20    21   ar
    22    21    22   ar
    23    22    23   ar
    24    23    24    1
    25    23    25   ar
    26    16    17   ar
    27    17    18   ar
    28     4     5    2
    29    10    11   ar
    30    11    12   ar
    31    12     7   ar
    32     5     1    1
    33    31    27   ar
    34    18    13   ar
    35    25    19   ar
@<TRIPOS>MOLECULE
*****
 31 35 0 0 0
SMALL
GASTEIGER

@<TRIPOS>ATOM
      1 C          72.2186   72.4964   14.0416 C.3     1  UNL1        0.1688
      2 C          72.6180   71.9627   12.6979 C.3     1  UNL1        0.2354
      3 O          72.7404   73.1236   11.7558 O.2     1  UNL1       -0.4580
      4 C          72.4165   74.3747   12.5173 C.2     1  UNL1        0.2207
      5 N          72.0941   73.9871   13.9300 N.2     1  UNL1       -0.2318
      6 F          70.6568   73.4252   19.7598 F       1  UNL1       -0.2042
      7 C          71.0472   73.1930   18.3303 C.ar    1  UNL1        0.1401
      8 C          72.2687   72.3841   18.0083 C.ar    1  UNL1        0.0294
      9 C          72.6591   72.1519   16.5787 C.ar    1  UNL1        0.0000
     10 C          71.8281   72.7286   15.4711 C.ar    1  UNL1        0.0034
     11 C          70.6067   73.5375   15.7931 C.ar    1  UNL1        0.0000
     12 C          70.2162   73.7697   17.2227 C.ar    1  UNL1        0.0294
     13 C          72.4154   75.7686   11.9633 C.ar    1  UNL1        0.0528
     14 C          73.6298   76.2966   11.2587 C.ar    1  UNL1        0.0046
     15 C          73.6288   77.6905   10.7046 C.ar    1  UNL1        0.0002
     16 C          72.4133   78.5566   10.8553 C.ar    1  UNL1        0.0001
     17 C          71.1989   78.0286   11.5599 C.ar    1  UNL1        0.0002
     18 C          71.1999   76.6346   12.1139 C.ar    1  UNL1        0.0046
     19 C          72.4121   79.9505   10.3013 C.ar    1  UNL1        0.0022
     20 C          72.7736   81.1085   11.1836 C.ar    1  UNL1        0.0001
     21 C          72.7725   82.5024   10.6297 C.ar    1  UNL1        0.0023
     22 C          72.4099   82.7384    9.1934 C.ar    1  UNL1        0.0296
     23 C          72.0485   81.5804    8.3111 C.ar    1  UNL1        0.1401
     24 F          71.6859   81.8164    6.8748 F       1  UNL1       -0.2042
     25 C          72.0496   80.1865    8.8650 C.ar    1  UNL1        0.0296
     26 C          72.2615   71.0543   14.4521 C.3     1  UNL1        0.1595
     27 N          71.2725   70.0821   13.8805 N.ar    1  UNL1       -0.2277
     28 C          71.4140   68.5889   13.8618 C.ar    1  UNL1        0.1973
     29 N          70.1973   68.0163   13.1969 N.ar    1  UNL1       -0.2007
     30 C          69.3039   69.1557   12.8047 C.ar    1  UNL1        0.2210
     31 N          69.9685   70.4324   13.2272 N.ar    1  UNL1       -0.1451
@<TRIPOS>BOND
     1     6     7    1
     2     7     8   ar
     3     8     9   ar
     4     9    10   ar
     5    10     1    1
     6     1    26    1
     7    26    27    1
     8    27    28   ar
     9    28    29   ar
    10    29    30   ar
    11    30    31   ar
    12     1     2    1
    13     2     3    1
    14     3     4    1
    15     4    13    1
    16    13    14   ar
    17    14    15   ar
    18    15    16   ar
    19    16    19    1
    20    19    20   ar
    21    20    21   ar
    22    21    22   ar
    23    22    23   ar
    24    23    24    1
    25    23    25   ar
    26    16    17   ar
    27    17    18   ar
    28     4     5    2
    29    10    11   ar
    30    11    12   ar
    31    12     7   ar
    32     5     1    1
    33    31    27   ar
    34    18    13   ar
    35    25    19   ar
@<TRIPOS>MOLECULE
*****
 31 35 0 0 0
SMALL
GASTEIGER

@<TRIPOS>ATOM
      1 C          61.6193   93.9058   -1.0089 C.3     1  UNL1        0.1688
      2 C          61.0089   93.5893    0.3242 C.3     1  UNL1        0.2354
      3 O          59.5320   93.8335    0.2274 O.2     1  UNL1       -0.4580
      4 C          59.2298   94.3009   -1.1655 C.2     1  UNL1        0.2207
      5 N          60.5198   94.3456   -1.9296 N.2     1  UNL1       -0.2318
      6 F          65.1343   94.8448   -5.7800 F       1  UNL1       -0.2042
      7 C          64.2556   94.6101   -4.5872 C.ar    1  UNL1        0.1401
      8 C          63.4468   95.7377   -4.0179 C.ar    1  UNL1        0.0294
      9 C          62.5680   95.5030   -2.8252 C.ar    1  UNL1        0.0000
     10 C          62.4981   94.1405   -2.2017 C.ar    1  UNL1        0.0034
     11 C          63.3069   93.0128   -2.7710 C.ar    1  UNL1        0.0000
     12 C          64.1856   93.2476   -3.9637 C.ar    1  UNL1        0.0294
     13 C          57.8753   94.6605   -1.7004 C.ar    1  UNL1        0.0528
     14 C          56.6685   93.8790   -1.2729 C.ar    1  UNL1        0.0046
     15 C          55.3140   94.2385   -1.8077 C.ar    1  UNL1        0.0002
     16 C          55.1663   95.3796   -2.7701 C.ar    1  UNL1        0.0001
     17 C          56.3731   96.1611   -3.1976 C.ar    1  UNL1        0.0002
     18 C          57.7277   95.8016   -2.6628 C.ar    1  UNL1        0.0046
     19 C          53.8118   95.7392   -3.3049 C.ar    1  UNL1        0.0022
     20 C          52.6251   95.7617   -2.3878 C.ar    1  UNL1        0.0001
     21 C          51.2706   96.1213   -2.9226 C.ar    1  UNL1        0.0023
     22 C          51.1029   96.4584   -4.3746 C.ar    1  UNL1        0.0296
     23 C          52.2896   96.4358   -5.2917 C.ar    1  UNL1        0.1401
     24 F          52.1219   96.7729   -6.7437 F       1  UNL1       -0.2042
     25 C          53.6441   96.0762   -4.7569 C.ar    1  UNL1        0.0296
     26 C          62.9026   93.5151   -0.3376 C.3     1  UNL1        0.1595
     27 N          63.5618   94.4566    0.6262 N.ar    1  UNL1       -0.2277
     28 C          64.4463   94.0676    1.7735 C.ar    1  UNL1        0.1973
     29 N          64.8833   95.3232    2.4682 N.ar    1  UNL1       -0.2007
     30 C          64.2690   96.4881    1.7503 C.ar    1  UNL1        0.2210
     31 N          63.4522   95.9526    0.6118 N.ar    1  UNL1       -0.1451
@<TRIPOS>BOND
     1     6     7    1
     2     7     8   ar
     3     8     9   ar
     4     9    10   ar
     5    10     1    1
     6     1    26    1
     7    26    27    1
     8    27    28   ar
     9    28    29   ar
    10    29    30   ar
    11    30    31   ar
    12     1     2    1
    13     2     3    1
    14     3     4    1
    15     4    13    1
    16    13    14   ar
    17    14    15   ar
    18    15    16   ar
    19    16    19    1
    20    19    20   ar
    21    20    21   ar
    22    21    22   ar
    23    22    23   ar
    24    23    24    1
    25    23    25   ar
    26    16    17   ar
    27    17    18   ar
    28     4     5    2
    29    10    11   ar
    30    11    12   ar
    31    12     7   ar
    32     5     1    1
    33    31    27   ar
    34    18    13   ar
    35    25    19   ar
