@<TRIPOS>MOLECULE
*****
 27 31 0 0 0
SMALL
GASTEIGER

@<TRIPOS>ATOM
      1 C          63.4626   85.6380   13.7395 C.3     1  UNL1        0.0645
      2 C          62.6500   85.8355   12.4943 C.3     1  UNL1        0.0214
      3 C          62.6167   87.1777   11.8255 C.3     1  UNL1        0.0312
      4 C          63.3960   88.3224   12.4020 C.3     1  UNL1        0.1169
      5 C          64.2086   88.1249   13.6472 C.3     1  UNL1        0.0312
      6 C          64.2419   86.7827   14.3160 C.3     1  UNL1        0.0214
      7 O          62.5834   88.5200   11.1567 O.3     1  UNL1       -0.3560
      8 C          62.5500   89.8622   10.4880 C.3     1  UNL1        0.1464
      9 C          63.3293   91.0069   11.0644 C.3     1  UNL1        0.0561
     10 C          64.1419   90.8094   12.3096 C.2     1  UNL1       -0.0161
     11 C          65.0057   91.7443   13.1033 C.ar    1  UNL1        0.0113
     12 C          65.3491   93.1929   12.9201 C.ar    1  UNL1        0.0009
     13 C          66.2597   93.8772   13.8962 C.ar    1  UNL1        0.0001
     14 C          66.8269   93.1127   15.0555 C.ar    1  UNL1        0.0015
     15 C          66.4835   91.6640   15.2387 C.ar    1  UNL1        0.0187
     16 C          65.5729   90.9798   14.2626 C.ar    1  UNL1        0.0758
     17 N          65.0597   89.5725   14.1854 N.2     1  UNL1       -0.2659
     18 C          64.1753   89.4672   12.9785 C.3     1  UNL1        0.1463
     19 C          62.8974   84.2582   13.5758 C.ar    1  UNL1       -0.0093
     20 C          62.1560   83.6122   14.7084 C.ar    1  UNL1       -0.0030
     21 C          61.5908   82.2323   14.5446 C.ar    1  UNL1       -0.0003
     22 C          61.7671   81.4987   13.2482 C.ar    1  UNL1       -0.0000
     23 C          62.5085   82.1448   12.1156 C.ar    1  UNL1       -0.0003
     24 C          63.0737   83.5245   12.2794 C.ar    1  UNL1       -0.0030
     25 C          65.0065   83.7989   14.7317 C.3     1  UNL1        0.0898
     26 N          64.0789   84.9613   14.9279 N.3     1  UNL1       -0.2693
     27 C          63.7677   85.4471   16.3125 C.3     1  UNL1        0.0898
@<TRIPOS>BOND
     1    25    26    1
     2    26    27    1
     3     1    26    1
     4     1    19    1
     5    19    20   ar
     6    20    21   ar
     7    21    22   ar
     8    22    23   ar
     9    23    24   ar
    10     1     2    1
    11     2     3    1
    12     4     3    1
    13     4     5    1
    14     5     6    1
    15     4     7    1
    16     7     8    1
    17     8     9    1
    18     9    10    1
    19    10    11    2
    20    11    12   ar
    21    12    13   ar
    22    13    14   ar
    23    14    15   ar
    24    15    16   ar
    25    16    17    2
    26    17    18    1
    27     6     1    1
    28    18    10    1
    29    24    19   ar
    30    18     4    1
    31    16    11   ar
@<TRIPOS>MOLECULE
*****
 27 31 0 0 0
SMALL
GASTEIGER

@<TRIPOS>ATOM
      1 C          63.0290   84.2875   13.4852 C.3     1  UNL1        0.0645
      2 C          62.2989   84.3230   12.1754 C.3     1  UNL1        0.0214
      3 C          62.1896   85.6097   11.4124 C.3     1  UNL1        0.0312
      4 C          62.8104   86.8610   11.9592 C.3     1  UNL1        0.1169
      5 C          63.5405   86.8255   13.2690 C.3     1  UNL1        0.0312
      6 C          63.6498   85.5387   14.0320 C.3     1  UNL1        0.0214
      7 O          62.0803   86.8965   10.6493 O.3     1  UNL1       -0.3560
      8 C          61.9710   88.1833    9.8862 C.3     1  UNL1        0.1464
      9 C          62.5918   89.4346   10.4330 C.3     1  UNL1        0.0561
     10 C          63.3219   89.3990   11.7428 C.2     1  UNL1       -0.0161
     11 C          64.0299   90.4642   12.5265 C.ar    1  UNL1        0.0113
     12 C          64.2472   91.9252   12.2654 C.ar    1  UNL1        0.0009
     13 C          65.0115   92.7578   13.2518 C.ar    1  UNL1        0.0001
     14 C          65.5584   92.1294   14.4992 C.ar    1  UNL1        0.0015
     15 C          65.3410   90.6683   14.7602 C.ar    1  UNL1        0.0187
     16 C          64.5767   89.8357   13.7739 C.ar    1  UNL1        0.0758
     17 N          64.2067   88.3821   13.7612 N.2     1  UNL1       -0.2659
     18 C          63.4312   88.1122   12.5059 C.3     1  UNL1        0.1463
     19 C          62.6114   82.8505   13.3808 C.ar    1  UNL1       -0.0093
     20 C          63.1937   81.9761   12.3101 C.ar    1  UNL1       -0.0030
     21 C          62.7760   80.5392   12.2058 C.ar    1  UNL1       -0.0003
     22 C          61.7762   79.9767   13.1721 C.ar    1  UNL1       -0.0000
     23 C          61.1939   80.8511   14.2428 C.ar    1  UNL1       -0.0003
     24 C          61.6115   82.2880   14.3471 C.ar    1  UNL1       -0.0030
     25 C          64.8033   82.8399   14.7127 C.3     1  UNL1        0.0898
     26 N          63.6141   83.7529   14.7587 N.3     1  UNL1       -0.2693
     27 C          63.0099   84.1315   16.0785 C.3     1  UNL1        0.0898
@<TRIPOS>BOND
     1    25    26    1
     2    26    27    1
     3     1    26    1
     4     1    19    1
     5    19    20   ar
     6    20    21   ar
     7    21    22   ar
     8    22    23   ar
     9    23    24   ar
    10     1     2    1
    11     2     3    1
    12     4     3    1
    13     4     5    1
    14     5     6    1
    15     4     7    1
    16     7     8    1
    17     8     9    1
    18     9    10    1
    19    10    11    2
    20    11    12   ar
    21    12    13   ar
    22    13    14   ar
    23    14    15   ar
    24    15    16   ar
    25    16    17    2
    26    17    18    1
    27     6     1    1
    28    18    10    1
    29    24    19   ar
    30    18     4    1
    31    16    11   ar
@<TRIPOS>MOLECULE
*****
 27 31 0 0 0
SMALL
GASTEIGER

@<TRIPOS>ATOM
      1 C          62.4113   89.2694   10.8663 C.3     1  UNL1        0.0645
      2 C          62.5444   90.2354    9.7266 C.3     1  UNL1        0.0214
      3 C          63.4418   91.4302    9.8572 C.3     1  UNL1        0.0312
      4 C          64.2060   91.6590   11.1275 C.3     1  UNL1        0.1169
      5 C          64.0728   90.6930   12.2672 C.3     1  UNL1        0.0312
      6 C          63.1755   89.4981   12.1366 C.3     1  UNL1        0.0214
      7 O          64.3392   92.6251    9.9878 O.3     1  UNL1       -0.3560
      8 C          65.2365   93.8200   10.1184 C.3     1  UNL1        0.1464
      9 C          66.0007   94.0487   11.3887 C.3     1  UNL1        0.0561
     10 C          65.8676   93.0827   12.5284 C.2     1  UNL1       -0.0161
     11 C          66.4914   93.0470   13.8920 C.ar    1  UNL1        0.0113
     12 C          67.4593   93.9655   14.5772 C.ar    1  UNL1        0.0009
     13 C          67.9155   93.6670   15.9748 C.ar    1  UNL1        0.0001
     14 C          67.4037   92.4501   16.6870 C.ar    1  UNL1        0.0015
     15 C          66.4356   91.5317   16.0017 C.ar    1  UNL1        0.0187
     16 C          65.9795   91.8302   14.6043 C.ar    1  UNL1        0.0758
     17 N          65.0394   91.1137   13.6808 N.2     1  UNL1       -0.2659
     18 C          64.9702   91.8878   12.3978 C.3     1  UNL1        0.1463
     19 C          61.4897   88.6276    9.8720 C.ar    1  UNL1       -0.0093
     20 C          60.3488   89.4104    9.2926 C.ar    1  UNL1       -0.0030
     21 C          59.4272   88.7686    8.2982 C.ar    1  UNL1       -0.0003
     22 C          59.6465   87.3439    7.8832 C.ar    1  UNL1       -0.0000
     23 C          60.7874   86.5611    8.4626 C.ar    1  UNL1       -0.0003
     24 C          61.7089   87.2029    9.4569 C.ar    1  UNL1       -0.0030
     25 C          60.4989   87.8803   11.9450 C.3     1  UNL1        0.0898
     26 N          61.9581   88.0804   11.6607 N.3     1  UNL1       -0.2693
     27 C          62.9641   87.0916   12.1708 C.3     1  UNL1        0.0898
@<TRIPOS>BOND
     1    25    26    1
     2    26    27    1
     3     1    26    1
     4     1    19    1
     5    19    20   ar
     6    20    21   ar
     7    21    22   ar
     8    22    23   ar
     9    23    24   ar
    10     1     2    1
    11     2     3    1
    12     4     3    1
    13     4     5    1
    14     5     6    1
    15     4     7    1
    16     7     8    1
    17     8     9    1
    18     9    10    1
    19    10    11    2
    20    11    12   ar
    21    12    13   ar
    22    13    14   ar
    23    14    15   ar
    24    15    16   ar
    25    16    17    2
    26    17    18    1
    27     6     1    1
    28    18    10    1
    29    24    19   ar
    30    18     4    1
    31    16    11   ar
@<TRIPOS>MOLECULE
*****
 27 31 0 0 0
SMALL
GASTEIGER

@<TRIPOS>ATOM
      1 C          60.3488   94.0778    0.1328 C.3     1  UNL1        0.0645
      2 C          60.9834   93.6890   -1.1695 C.3     1  UNL1        0.0214
      3 C          60.2002   93.7892   -2.4449 C.3     1  UNL1        0.0312
      4 C          58.7825   94.2784   -2.4179 C.3     1  UNL1        0.1169
      5 C          58.1479   94.6673   -1.1156 C.3     1  UNL1        0.0312
      6 C          58.9311   94.5670    0.1597 C.3     1  UNL1        0.0214
      7 O          59.4171   93.8895   -3.7203 O.3     1  UNL1       -0.3560
      8 C          58.6339   93.9898   -4.9957 C.3     1  UNL1        0.1464
      9 C          57.2162   94.4790   -4.9687 C.3     1  UNL1        0.0561
     10 C          56.5816   94.8679   -3.6664 C.2     1  UNL1       -0.0161
     11 C          55.2127   95.3810   -3.3306 C.ar    1  UNL1        0.0113
     12 C          54.0153   95.6788   -4.1836 C.ar    1  UNL1        0.0009
     13 C          52.7550   96.1934   -3.5537 C.ar    1  UNL1        0.0001
     14 C          52.6921   96.4103   -2.0707 C.ar    1  UNL1        0.0015
     15 C          53.8895   96.1125   -1.2177 C.ar    1  UNL1        0.0187
     16 C          55.1498   95.5978   -1.8477 C.ar    1  UNL1        0.0758
     17 N          56.4798   95.2187   -1.2670 N.2     1  UNL1       -0.2659
     18 C          57.3648   94.7676   -2.3910 C.3     1  UNL1        0.1463
     19 C          61.7104   93.6752    0.6165 C.ar    1  UNL1       -0.0093
     20 C          61.8717   92.4530    1.4711 C.ar    1  UNL1       -0.0030
     21 C          63.2333   92.0504    1.9548 C.ar    1  UNL1       -0.0003
     22 C          64.4336   92.8700    1.5840 C.ar    1  UNL1       -0.0000
     23 C          64.2723   94.0922    0.7294 C.ar    1  UNL1       -0.0003
     24 C          62.9107   94.4948    0.2457 C.ar    1  UNL1       -0.0030
     25 C          60.4779   95.6847    2.1703 C.3     1  UNL1        0.0898
     26 N          60.1871   94.3269    1.6031 N.3     1  UNL1       -0.2693
     27 C          59.7344   93.2180    2.5062 C.3     1  UNL1        0.0898
@<TRIPOS>BOND
     1    25    26    1
     2    26    27    1
     3     1    26    1
     4     1    19    1
     5    19    20   ar
     6    20    21   ar
     7    21    22   ar
     8    22    23   ar
     9    23    24   ar
    10     1     2    1
    11     2     3    1
    12     4     3    1
    13     4     5    1
    14     5     6    1
    15     4     7    1
    16     7     8    1
    17     8     9    1
    18     9    10    1
    19    10    11    2
    20    11    12   ar
    21    12    13   ar
    22    13    14   ar
    23    14    15   ar
    24    15    16   ar
    25    16    17    2
    26    17    18    1
    27     6     1    1
    28    18    10    1
    29    24    19   ar
    30    18     4    1
    31    16    11   ar
@<TRIPOS>MOLECULE
*****
 27 31 0 0 0
SMALL
GASTEIGER

@<TRIPOS>ATOM
      1 C          63.2653   83.7982   13.2454 C.3     1  UNL1        0.0645
      2 C          62.7434   83.3627   14.5825 C.3     1  UNL1        0.0214
      3 C          62.6452   84.3504   15.7071 C.3     1  UNL1        0.0312
      4 C          63.0688   85.7736   15.4946 C.3     1  UNL1        0.1169
      5 C          63.5908   86.2090   14.1574 C.3     1  UNL1        0.0312
      6 C          63.6890   85.2213   13.0328 C.3     1  UNL1        0.0214
      7 O          62.5469   85.3381   16.8318 O.3     1  UNL1       -0.3560
      8 C          62.4487   86.3258   17.9564 C.3     1  UNL1        0.1464
      9 C          62.8724   87.7490   17.7438 C.3     1  UNL1        0.0561
     10 C          63.3943   88.1844   16.4067 C.2     1  UNL1       -0.0161
     11 C          63.8832   89.5101   15.9033 C.ar    1  UNL1        0.0113
     12 C          64.0155   90.8489   16.5668 C.ar    1  UNL1        0.0009
     13 C          64.5482   92.0194   15.7945 C.ar    1  UNL1        0.0001
     14 C          64.9486   91.8510   14.3588 C.ar    1  UNL1        0.0015
     15 C          64.8162   90.5122   13.6953 C.ar    1  UNL1        0.0187
     16 C          64.2836   89.3418   14.4675 C.ar    1  UNL1        0.0758
     17 N          64.0421   87.9120   14.0836 N.2     1  UNL1       -0.2659
     18 C          63.4925   87.1967   15.2820 C.3     1  UNL1        0.1463
     19 C          62.9896   82.3518   12.9589 C.ar    1  UNL1       -0.0093
     20 C          62.7162   81.4025   14.0876 C.ar    1  UNL1       -0.0030
     21 C          62.4405   79.9561   13.8010 C.ar    1  UNL1       -0.0003
     22 C          62.4383   79.4592   12.3857 C.ar    1  UNL1       -0.0000
     23 C          62.7118   80.4085   11.2570 C.ar    1  UNL1       -0.0003
     24 C          62.9874   81.8548   11.5436 C.ar    1  UNL1       -0.0030
     25 C          62.8447   84.3647   10.7449 C.3     1  UNL1        0.0898
     26 N          63.6915   83.7313   11.8087 N.3     1  UNL1       -0.2693
     27 C          64.9645   83.0310   11.4359 C.3     1  UNL1        0.0898
@<TRIPOS>BOND
     1    25    26    1
     2    26    27    1
     3     1    26    1
     4     1    19    1
     5    19    20   ar
     6    20    21   ar
     7    21    22   ar
     8    22    23   ar
     9    23    24   ar
    10     1     2    1
    11     2     3    1
    12     4     3    1
    13     4     5    1
    14     5     6    1
    15     4     7    1
    16     7     8    1
    17     8     9    1
    18     9    10    1
    19    10    11    2
    20    11    12   ar
    21    12    13   ar
    22    13    14   ar
    23    14    15   ar
    24    15    16   ar
    25    16    17    2
    26    17    18    1
    27     6     1    1
    28    18    10    1
    29    24    19   ar
    30    18     4    1
    31    16    11   ar
@<TRIPOS>MOLECULE
*****
 27 31 0 0 0
SMALL
GASTEIGER

@<TRIPOS>ATOM
      1 C          61.7004   94.3446   -0.1181 C.3     1  UNL1        0.0645
      2 C          62.3731   95.2510   -1.1060 C.3     1  UNL1        0.0214
      3 C          61.8555   95.3452   -2.5107 C.3     1  UNL1        0.0312
      4 C          60.6652   94.5331   -2.9275 C.3     1  UNL1        0.1169
      5 C          59.9926   93.6267   -1.9396 C.3     1  UNL1        0.0312
      6 C          60.5101   93.5325   -0.5349 C.3     1  UNL1        0.0214
      7 O          61.3379   95.4395   -3.9155 O.3     1  UNL1       -0.3560
      8 C          60.8203   95.5338   -5.3202 C.3     1  UNL1        0.1464
      9 C          59.6300   94.7216   -5.7369 C.3     1  UNL1        0.0561
     10 C          58.9574   93.8152   -4.7491 C.2     1  UNL1       -0.0161
     11 C          57.7745   92.9007   -4.8695 C.ar    1  UNL1        0.0113
     12 C          56.8642   92.5833   -6.0187 C.ar    1  UNL1        0.0009
     13 C          55.7404   91.6064   -5.8376 C.ar    1  UNL1        0.0001
     14 C          55.5269   90.9469   -4.5073 C.ar    1  UNL1        0.0015
     15 C          56.4373   91.2644   -3.3581 C.ar    1  UNL1        0.0187
     16 C          57.5611   92.2413   -3.5392 C.ar    1  UNL1        0.0758
     17 N          58.6120   92.7482   -2.5966 N.2     1  UNL1       -0.2659
     18 C          59.4750   93.7210   -3.3443 C.3     1  UNL1        0.1463
     19 C          62.7882   94.9102    0.7460 C.ar    1  UNL1       -0.0093
     20 C          62.6472   96.2869    1.3246 C.ar    1  UNL1       -0.0030
     21 C          63.7351   96.8523    2.1888 C.ar    1  UNL1       -0.0003
     22 C          64.9640   96.0410    2.4744 C.ar    1  UNL1       -0.0000
     23 C          65.1050   94.6643    1.8958 C.ar    1  UNL1       -0.0003
     24 C          64.0172   94.0989    1.0317 C.ar    1  UNL1       -0.0030
     25 C          60.5080   94.2716    2.1890 C.3     1  UNL1        0.0898
     26 N          61.4055   93.6347    1.1699 N.3     1  UNL1       -0.2693
     27 C          62.0083   92.2876    1.4388 C.3     1  UNL1        0.0898
@<TRIPOS>BOND
     1    25    26    1
     2    26    27    1
     3     1    26    1
     4     1    19    1
     5    19    20   ar
     6    20    21   ar
     7    21    22   ar
     8    22    23   ar
     9    23    24   ar
    10     1     2    1
    11     2     3    1
    12     4     3    1
    13     4     5    1
    14     5     6    1
    15     4     7    1
    16     7     8    1
    17     8     9    1
    18     9    10    1
    19    10    11    2
    20    11    12   ar
    21    12    13   ar
    22    13    14   ar
    23    14    15   ar
    24    15    16   ar
    25    16    17    2
    26    17    18    1
    27     6     1    1
    28    18    10    1
    29    24    19   ar
    30    18     4    1
    31    16    11   ar
@<TRIPOS>MOLECULE
*****
 27 31 0 0 0
SMALL
GASTEIGER

@<TRIPOS>ATOM
      1 C          62.0851   94.5958   -1.0890 C.3     1  UNL1        0.0645
      2 C          61.2989   94.0606    0.0709 C.3     1  UNL1        0.0214
      3 C          59.9280   93.4934   -0.1502 C.3     1  UNL1        0.0312
      4 C          59.3434   93.4613   -1.5312 C.3     1  UNL1        0.1169
      5 C          60.1296   93.9964   -2.6911 C.3     1  UNL1        0.0312
      6 C          61.5004   94.5637   -2.4700 C.3     1  UNL1        0.0214
      7 O          58.5571   92.9261   -0.3713 O.3     1  UNL1       -0.3560
      8 C          57.1862   92.3588   -0.5924 C.3     1  UNL1        0.1464
      9 C          56.6016   92.3267   -1.9734 C.3     1  UNL1        0.0561
     10 C          57.3878   92.8619   -3.1333 C.2     1  UNL1       -0.0161
     11 C          57.0749   92.9629   -4.5968 C.ar    1  UNL1        0.0113
     12 C          55.8698   92.5628   -5.3954 C.ar    1  UNL1        0.0009
     13 C          55.8423   92.7923   -6.8775 C.ar    1  UNL1        0.0001
     14 C          57.0198   93.4220   -7.5610 C.ar    1  UNL1        0.0015
     15 C          58.2248   93.8221   -6.7623 C.ar    1  UNL1        0.0187
     16 C          58.2524   93.5925   -5.2802 C.ar    1  UNL1        0.0758
     17 N          59.2930   93.8807   -4.2391 N.2     1  UNL1       -0.2659
     18 C          58.7587   93.4292   -2.9122 C.3     1  UNL1        0.1463
     19 C          63.0605   94.8437    0.0232 C.ar    1  UNL1       -0.0093
     20 C          64.1264   93.8325    0.3254 C.ar    1  UNL1       -0.0030
     21 C          65.1018   94.0805    1.4377 C.ar    1  UNL1       -0.0003
     22 C          65.0112   95.3396    2.2478 C.ar    1  UNL1       -0.0000
     23 C          63.9452   96.3508    1.9457 C.ar    1  UNL1       -0.0003
     24 C          62.9699   96.1028    0.8334 C.ar    1  UNL1       -0.0030
     25 C          64.1594   94.3487   -2.6337 C.3     1  UNL1        0.0898
     26 N          63.2100   95.2170   -1.8627 N.3     1  UNL1       -0.2693
     27 C          63.3856   96.7068   -1.8652 C.3     1  UNL1        0.0898
@<TRIPOS>BOND
     1    25    26    1
     2    26    27    1
     3     1    26    1
     4     1    19    1
     5    19    20   ar
     6    20    21   ar
     7    21    22   ar
     8    22    23   ar
     9    23    24   ar
    10     1     2    1
    11     2     3    1
    12     4     3    1
    13     4     5    1
    14     5     6    1
    15     4     7    1
    16     7     8    1
    17     8     9    1
    18     9    10    1
    19    10    11    2
    20    11    12   ar
    21    12    13   ar
    22    13    14   ar
    23    14    15   ar
    24    15    16   ar
    25    16    17    2
    26    17    18    1
    27     6     1    1
    28    18    10    1
    29    24    19   ar
    30    18     4    1
    31    16    11   ar
@<TRIPOS>MOLECULE
*****
 27 31 0 0 0
SMALL
GASTEIGER

@<TRIPOS>ATOM
      1 C          59.7400   93.4808   -1.9128 C.3     1  UNL1        0.0645
      2 C          60.1543   94.3627   -3.0533 C.3     1  UNL1        0.0214
      3 C          59.4540   94.2572   -4.3756 C.3     1  UNL1        0.0312
      4 C          58.3396   93.2698   -4.5574 C.3     1  UNL1        0.1169
      5 C          57.9254   92.3879   -3.4170 C.3     1  UNL1        0.0312
      6 C          58.6256   92.4935   -2.0947 C.3     1  UNL1        0.0214
      7 O          58.7538   94.1517   -5.6980 O.3     1  UNL1       -0.3560
      8 C          58.0536   94.0462   -7.0202 C.3     1  UNL1        0.1464
      9 C          56.9391   93.0588   -7.2021 C.3     1  UNL1        0.0561
     10 C          56.5249   92.1770   -6.0616 C.2     1  UNL1       -0.0161
     11 C          55.4691   91.1180   -5.9438 C.ar    1  UNL1        0.0113
     12 C          54.4705   90.5826   -6.9267 C.ar    1  UNL1        0.0009
     13 C          53.5195   89.4983   -6.5145 C.ar    1  UNL1        0.0001
     14 C          53.5672   88.9492   -5.1194 C.ar    1  UNL1        0.0015
     15 C          54.5659   89.4846   -4.1365 C.ar    1  UNL1        0.0187
     16 C          55.5169   90.5689   -4.5487 C.ar    1  UNL1        0.0758
     17 N          56.6021   91.2886   -3.8043 N.2     1  UNL1       -0.2659
     18 C          57.2251   92.2824   -4.7393 C.3     1  UNL1        0.1463
     19 C          60.8437   94.2553   -1.2556 C.ar    1  UNL1       -0.0093
     20 C          62.2735   93.9696   -1.6080 C.ar    1  UNL1       -0.0030
     21 C          63.3771   94.7442   -0.9506 C.ar    1  UNL1       -0.0003
     22 C          63.0510   95.8044    0.0591 C.ar    1  UNL1       -0.0000
     23 C          61.6213   96.0901    0.4115 C.ar    1  UNL1       -0.0003
     24 C          60.5177   95.3156   -0.2458 C.ar    1  UNL1       -0.0030
     25 C          58.5687   93.1632    0.3844 C.3     1  UNL1        0.0898
     26 N          59.7091   92.8679   -0.5441 N.3     1  UNL1       -0.2693
     27 C          60.8188   91.9597   -0.1039 C.3     1  UNL1        0.0898
@<TRIPOS>BOND
     1    25    26    1
     2    26    27    1
     3     1    26    1
     4     1    19    1
     5    19    20   ar
     6    20    21   ar
     7    21    22   ar
     8    22    23   ar
     9    23    24   ar
    10     1     2    1
    11     2     3    1
    12     4     3    1
    13     4     5    1
    14     5     6    1
    15     4     7    1
    16     7     8    1
    17     8     9    1
    18     9    10    1
    19    10    11    2
    20    11    12   ar
    21    12    13   ar
    22    13    14   ar
    23    14    15   ar
    24    15    16   ar
    25    16    17    2
    26    17    18    1
    27     6     1    1
    28    18    10    1
    29    24    19   ar
    30    18     4    1
    31    16    11   ar
