@<TRIPOS>MOLECULE
*****
 35 39 0 0 0
SMALL
GASTEIGER

@<TRIPOS>ATOM
      1 C          63.5812   89.3397   13.2530 C.ar    1  UNL1        0.0447
      2 C          64.3736   89.5189   14.5139 C.ar    1  UNL1        0.0156
      3 C          64.8586   88.3188   15.2718 C.ar    1  UNL1        0.0159
      4 C          64.5512   86.9395   14.7687 C.ar    1  UNL1        0.0507
      5 C          63.7588   86.7603   13.5078 C.ar    1  UNL1        0.0192
      6 C          63.2738   87.9604   12.7499 C.ar    1  UNL1        0.0157
      7 C          63.6115   85.2886   13.2581 C.2     1  UNL1        0.0578
      8 C          62.8896   84.6580   12.1043 C.2     1  UNL1        0.0384
      9 C          64.3129   84.5582   14.3647 C.2     1  UNL1        0.2496
     10 O          64.4154   83.0689   14.5119 O.2     1  UNL1       -0.2698
     11 N          64.8937   85.5784   15.2984 N.am    1  UNL1       -0.2804
     12 H          65.4091   85.3882   16.1153 H       1  UNL1        0.1552
     13 C          62.8251   83.1641   11.9861 C.ar    1  UNL1        0.0053
     14 C          63.4842   82.4742   10.8286 C.ar    1  UNL1        0.0002
     15 C          63.4197   80.9803   10.7103 C.ar    1  UNL1        0.0023
     16 C          62.6962   80.1762   11.7495 C.ar    1  UNL1        0.0296
     17 C          62.0372   80.8660   12.9070 C.ar    1  UNL1        0.1401
     18 F          61.3137   80.0619   13.9462 F       1  UNL1       -0.2042
     19 C          62.1016   82.3600   13.0253 C.ar    1  UNL1        0.0297
     20 C          62.2321   85.5213   11.0688 C.ar    1  UNL1        0.1407
     21 N          62.6862   85.6974    9.6501 N.ar    1  UNL1       -0.2254
     22 C          61.7400   86.6449    8.9745 C.ar    1  UNL1        0.1189
     23 C          60.7008   87.0547    9.9758 C.ar    1  UNL1        0.0945
     24 N          61.0050   86.3602   11.2701 N.ar    1  UNL1       -0.3361
     25 H          60.4897   86.4409   12.1050 H       1  UNL1        0.1674
     26 N          63.0962   90.5399   12.4950 N.pl3   1  UNL1       -0.3339
     27 H          62.1364   90.6462   12.3034 H       1  UNL1        0.1468
     28 N          66.0282   93.6542   11.0969 N.3     1  UNL1       -0.2726
     29 C          66.0031   93.2414   12.5387 C.3     1  UNL1        0.0738
     30 C          65.0257   92.2033   13.0048 C.3     1  UNL1        0.0368
     31 C          64.0735   91.5780   12.0290 C.3     1  UNL1        0.0718
     32 C          64.0986   91.9908   10.5871 C.3     1  UNL1        0.0368
     33 C          65.0760   93.0288   10.1211 C.3     1  UNL1        0.0738
     34 C          67.6960   94.5324    9.3089 C.3     1  UNL1        0.0188
     35 C          67.0055   94.6922   10.6309 C.3     1  UNL1        0.0721
@<TRIPOS>BOND
     1    34    35    1
     2    35    28    1
     3    28    29    1
     4    29    30    1
     5    30    31    1
     6    31    26    1
     7    26     1    1
     8     1     2   ar
     9     2     3   ar
    10     3     4   ar
    11     4     5   ar
    12     5     6   ar
    13     5     7    1
    14     7     8    2
    15     8    13    1
    16    13    14   ar
    17    14    15   ar
    18    15    16   ar
    19    16    17   ar
    20    17    18    1
    21    17    19   ar
    22     8    20    1
    23    20    21   ar
    24    21    22   ar
    25    22    23   ar
    26    23    24   ar
    27     7     9    1
    28     9    10    2
    29     9    11   am
    30    31    32    1
    31    32    33    1
    32    33    28    1
    33     6     1   ar
    34    19    13   ar
    35    24    20   ar
    36    11     4    1
    37    26    27    1
    38    24    25    1
    39    11    12    1
@<TRIPOS>MOLECULE
*****
 35 39 0 0 0
SMALL
GASTEIGER

@<TRIPOS>ATOM
      1 C          61.7107   88.1090   11.0970 C.ar    1  UNL1        0.0447
      2 C          61.4407   88.8438    9.8175 C.ar    1  UNL1        0.0156
      3 C          62.1230   90.1516    9.5454 C.ar    1  UNL1        0.0159
      4 C          63.0752   90.7247   10.5528 C.ar    1  UNL1        0.0507
      5 C          63.3452   89.9899   11.8323 C.ar    1  UNL1        0.0192
      6 C          62.6630   88.6821   12.1044 C.ar    1  UNL1        0.0157
      7 C          64.3261   90.7956   12.6314 C.2     1  UNL1        0.0578
      8 C          64.8745   90.4323   13.9795 C.2     1  UNL1        0.0384
      9 C          64.6624   92.0284   11.8458 C.2     1  UNL1        0.2496
     10 O          65.6061   93.1144   12.2704 O.2     1  UNL1       -0.2698
     11 N          63.8893   91.9846   10.5611 N.am    1  UNL1       -0.2804
     12 H          63.9121   92.6635    9.8485 H       1  UNL1        0.1552
     13 C          65.8537   91.3418   14.6608 C.ar    1  UNL1        0.0053
     14 C          65.4151   92.1777   15.8264 C.ar    1  UNL1        0.0002
     15 C          66.3943   93.0872   16.5078 C.ar    1  UNL1        0.0023
     16 C          67.8120   93.1606   16.0234 C.ar    1  UNL1        0.0296
     17 C          68.2506   92.3246   14.8577 C.ar    1  UNL1        0.1401
     18 F          69.6683   92.3981   14.3734 F       1  UNL1       -0.2042
     19 C          67.2714   91.4152   14.1764 C.ar    1  UNL1        0.0297
     20 C          64.4437   89.1597   14.6463 C.ar    1  UNL1        0.1407
     21 N          64.9381   87.7818   14.3192 N.ar    1  UNL1       -0.2254
     22 C          64.2430   86.8119   15.2280 C.ar    1  UNL1        0.1189
     23 C          63.3188   87.5903   16.1169 C.ar    1  UNL1        0.0945
     24 N          63.4429   89.0413   15.7574 N.ar    1  UNL1       -0.3361
     25 H          62.9534   89.7853   16.1770 H       1  UNL1        0.1674
     26 N          61.0285   86.8011   11.3691 N.pl3   1  UNL1       -0.3339
     27 H          60.0455   86.7478   11.3616 H       1  UNL1        0.1468
     28 N          63.4750   83.1213   12.2197 N.3     1  UNL1       -0.2726
     29 C          62.8013   83.8505   13.3442 C.3     1  UNL1        0.0738
     30 C          61.9858   85.0771   13.0607 C.3     1  UNL1        0.0368
     31 C          61.8440   85.5745   11.6527 C.3     1  UNL1        0.0718
     32 C          62.5177   84.8453   10.5282 C.3     1  UNL1        0.0368
     33 C          63.3332   83.6187   10.8117 C.3     1  UNL1        0.0738
     34 C          63.8605   80.9399   13.5772 C.3     1  UNL1        0.0188
     35 C          64.2905   81.8947   12.5032 C.3     1  UNL1        0.0721
@<TRIPOS>BOND
     1    34    35    1
     2    35    28    1
     3    28    29    1
     4    29    30    1
     5    30    31    1
     6    31    26    1
     7    26     1    1
     8     1     2   ar
     9     2     3   ar
    10     3     4   ar
    11     4     5   ar
    12     5     6   ar
    13     5     7    1
    14     7     8    2
    15     8    13    1
    16    13    14   ar
    17    14    15   ar
    18    15    16   ar
    19    16    17   ar
    20    17    18    1
    21    17    19   ar
    22     8    20    1
    23    20    21   ar
    24    21    22   ar
    25    22    23   ar
    26    23    24   ar
    27     7     9    1
    28     9    10    2
    29     9    11   am
    30    31    32    1
    31    32    33    1
    32    33    28    1
    33     6     1   ar
    34    19    13   ar
    35    24    20   ar
    36    11     4    1
    37    26    27    1
    38    24    25    1
    39    11    12    1
@<TRIPOS>MOLECULE
*****
 35 39 0 0 0
SMALL
GASTEIGER

@<TRIPOS>ATOM
      1 C          62.8322   89.9747   12.8716 C.ar    1  UNL1        0.0447
      2 C          62.3776   90.6602   11.6172 C.ar    1  UNL1        0.0156
      3 C          62.0762   89.8537   10.3890 C.ar    1  UNL1        0.0159
      4 C          62.2293   88.3618   10.4150 C.ar    1  UNL1        0.0507
      5 C          62.6838   87.6763   11.6694 C.ar    1  UNL1        0.0192
      6 C          62.9853   88.4828   12.8976 C.ar    1  UNL1        0.0157
      7 C          62.7429   86.2025   11.3968 C.2     1  UNL1        0.0578
      8 C          63.1487   85.1405   12.3753 C.2     1  UNL1        0.0384
      9 C          62.3247   85.9771    9.9740 C.2     1  UNL1        0.2496
     10 O          62.2391   84.6500    9.2799 O.2     1  UNL1       -0.2698
     11 N          62.0073   87.3116    9.3672 N.am    1  UNL1       -0.2804
     12 H          61.7062   87.4704    8.4434 H       1  UNL1        0.1552
     13 C          63.1595   83.7000   11.9572 C.ar    1  UNL1        0.0053
     14 C          63.9375   83.2761   10.7468 C.ar    1  UNL1        0.0002
     15 C          63.9482   81.8356   10.3287 C.ar    1  UNL1        0.0023
     16 C          63.1810   80.8190   11.1209 C.ar    1  UNL1        0.0296
     17 C          62.4029   81.2428   12.3313 C.ar    1  UNL1        0.1401
     18 F          61.6357   80.2261   13.1235 F       1  UNL1       -0.2042
     19 C          62.3922   82.6833   12.7494 C.ar    1  UNL1        0.0297
     20 C          63.5439   85.5189   13.7719 C.ar    1  UNL1        0.1407
     21 N          62.7408   85.2686   15.0139 N.ar    1  UNL1       -0.2254
     22 C          63.5119   85.8091   16.1814 C.ar    1  UNL1        0.1189
     23 C          64.7918   86.3935   15.6610 C.ar    1  UNL1        0.0945
     24 N          64.8115   86.2141   14.1719 N.ar    1  UNL1       -0.3361
     25 H          65.5302   86.5022   13.5639 H       1  UNL1        0.1674
     26 N          63.1337   90.7811   14.0999 N.pl3   1  UNL1       -0.3339
     27 H          62.4239   90.9588   14.7586 H       1  UNL1        0.1468
     28 N          67.2825   92.3882   14.7742 N.3     1  UNL1       -0.2726
     29 C          66.3098   92.3210   15.9141 C.3     1  UNL1        0.0738
     30 C          64.9268   91.7853   15.6893 C.3     1  UNL1        0.0368
     31 C          64.5166   91.3168   14.3247 C.3     1  UNL1        0.0718
     32 C          65.4893   91.3841   13.1848 C.3     1  UNL1        0.0368
     33 C          66.8722   91.9197   13.4096 C.3     1  UNL1        0.0738
     34 C          68.9088   93.9468   16.0688 C.3     1  UNL1        0.0188
     35 C          68.6654   92.9239   14.9989 C.3     1  UNL1        0.0721
@<TRIPOS>BOND
     1    34    35    1
     2    35    28    1
     3    28    29    1
     4    29    30    1
     5    30    31    1
     6    31    26    1
     7    26     1    1
     8     1     2   ar
     9     2     3   ar
    10     3     4   ar
    11     4     5   ar
    12     5     6   ar
    13     5     7    1
    14     7     8    2
    15     8    13    1
    16    13    14   ar
    17    14    15   ar
    18    15    16   ar
    19    16    17   ar
    20    17    18    1
    21    17    19   ar
    22     8    20    1
    23    20    21   ar
    24    21    22   ar
    25    22    23   ar
    26    23    24   ar
    27     7     9    1
    28     9    10    2
    29     9    11   am
    30    31    32    1
    31    32    33    1
    32    33    28    1
    33     6     1   ar
    34    19    13   ar
    35    24    20   ar
    36    11     4    1
    37    26    27    1
    38    24    25    1
    39    11    12    1
@<TRIPOS>MOLECULE
*****
 35 39 0 0 0
SMALL
GASTEIGER

@<TRIPOS>ATOM
      1 C          62.7224   89.5159   12.0257 C.ar    1  UNL1        0.0447
      2 C          62.4322   89.6924   10.5647 C.ar    1  UNL1        0.0156
      3 C          62.2493   88.4907    9.6858 C.ar    1  UNL1        0.0159
      4 C          62.3567   87.1125   10.2680 C.ar    1  UNL1        0.0507
      5 C          62.6470   86.9359   11.7290 C.ar    1  UNL1        0.0192
      6 C          62.8298   88.1376   12.6078 C.ar    1  UNL1        0.0157
      7 C          62.6952   85.4647   12.0175 C.2     1  UNL1        0.0578
      8 C          62.9578   84.8366   13.3541 C.2     1  UNL1        0.0384
      9 C          62.4348   84.7320   10.7348 C.2     1  UNL1        0.2496
     10 O          62.3913   83.2424   10.5635 O.2     1  UNL1       -0.2698
     11 N          62.2256   85.7503    9.6535 N.am    1  UNL1       -0.2804
     12 H          62.0356   85.5584    8.7067 H       1  UNL1        0.1552
     13 C          62.9755   83.3429   13.4903 C.ar    1  UNL1        0.0053
     14 C          64.2347   82.5788   13.2065 C.ar    1  UNL1        0.0002
     15 C          64.2525   81.0851   13.3428 C.ar    1  UNL1        0.0023
     16 C          63.0110   80.3555   13.7627 C.ar    1  UNL1        0.0296
     17 C          61.7518   81.1196   14.0465 C.ar    1  UNL1        0.1401
     18 F          60.5103   80.3899   14.4665 F       1  UNL1       -0.2042
     19 C          61.7340   82.6133   13.9103 C.ar    1  UNL1        0.0297
     20 C          63.2026   85.7020   14.5545 C.ar    1  UNL1        0.1407
     21 N          64.1476   86.8648   14.6252 N.ar    1  UNL1       -0.2254
     22 C          64.0746   87.4381   16.0093 C.ar    1  UNL1        0.1189
     23 C          63.0843   86.6298   16.7941 C.ar    1  UNL1        0.0945
     24 N          62.5454   85.5568   15.8951 N.ar    1  UNL1       -0.3361
     25 H          61.8776   84.8767   16.1415 H       1  UNL1        0.1674
     26 N          62.9052   90.7176   12.9046 N.pl3   1  UNL1       -0.3339
     27 H          62.1192   91.2075   13.2384 H       1  UNL1        0.1468
     28 N          67.0464   92.0836   14.0156 N.3     1  UNL1       -0.2726
     29 C          66.4359   92.5202   12.7169 C.3     1  UNL1        0.0738
     30 C          65.0554   92.0649   12.3466 C.3     1  UNL1        0.0368
     31 C          64.2856   91.1730   13.2749 C.3     1  UNL1        0.0718
     32 C          64.8962   90.7363   14.5736 C.3     1  UNL1        0.0368
     33 C          66.2766   91.1916   14.9439 C.3     1  UNL1        0.0738
     34 C          68.6651   93.2162   15.7029 C.3     1  UNL1        0.0188
     35 C          68.4268   92.5389   14.3859 C.3     1  UNL1        0.0721
@<TRIPOS>BOND
     1    34    35    1
     2    35    28    1
     3    28    29    1
     4    29    30    1
     5    30    31    1
     6    31    26    1
     7    26     1    1
     8     1     2   ar
     9     2     3   ar
    10     3     4   ar
    11     4     5   ar
    12     5     6   ar
    13     5     7    1
    14     7     8    2
    15     8    13    1
    16    13    14   ar
    17    14    15   ar
    18    15    16   ar
    19    16    17   ar
    20    17    18    1
    21    17    19   ar
    22     8    20    1
    23    20    21   ar
    24    21    22   ar
    25    22    23   ar
    26    23    24   ar
    27     7     9    1
    28     9    10    2
    29     9    11   am
    30    31    32    1
    31    32    33    1
    32    33    28    1
    33     6     1   ar
    34    19    13   ar
    35    24    20   ar
    36    11     4    1
    37    26    27    1
    38    24    25    1
    39    11    12    1
@<TRIPOS>MOLECULE
*****
 35 39 0 0 0
SMALL
GASTEIGER

@<TRIPOS>ATOM
      1 C          63.7076   89.1879   13.2600 C.ar    1  UNL1        0.0447
      2 C          64.4538   89.4634   14.5317 C.ar    1  UNL1        0.0156
      3 C          64.8489   88.3291   15.4301 C.ar    1  UNL1        0.0159
      4 C          64.4977   86.9193   15.0568 C.ar    1  UNL1        0.0507
      5 C          63.7515   86.6439   13.7851 C.ar    1  UNL1        0.0192
      6 C          63.3564   87.7782   12.8867 C.ar    1  UNL1        0.0157
      7 C          63.5451   85.1619   13.6805 C.2     1  UNL1        0.0578
      8 C          62.8432   84.4461   12.5647 C.2     1  UNL1        0.0384
      9 C          64.1637   84.5213   14.8876 C.2     1  UNL1        0.2496
     10 O          64.1891   83.0524   15.1908 O.2     1  UNL1       -0.2698
     11 N          64.7525   85.6075   15.7382 N.am    1  UNL1       -0.2804
     12 H          65.2235   85.4815   16.5935 H       1  UNL1        0.1552
     13 C          62.7128   82.9521   12.5969 C.ar    1  UNL1        0.0053
     14 C          63.5082   82.1092   11.6446 C.ar    1  UNL1        0.0002
     15 C          63.3779   80.6152   11.6768 C.ar    1  UNL1        0.0023
     16 C          62.4522   79.9641   12.6612 C.ar    1  UNL1        0.0296
     17 C          61.6568   80.8070   13.6135 C.ar    1  UNL1        0.1401
     18 F          60.7311   80.1559   14.5979 F       1  UNL1       -0.2042
     19 C          61.7871   82.3010   13.5813 C.ar    1  UNL1        0.0297
     20 C          62.2716   85.2242   11.4168 C.ar    1  UNL1        0.1407
     21 N          62.8027   85.2445   10.0141 N.ar    1  UNL1       -0.2254
     22 C          61.9280   86.1514    9.2003 C.ar    1  UNL1        0.1189
     23 C          60.8562   86.6917   10.1000 C.ar    1  UNL1        0.0945
     24 N          61.0686   86.1186   11.4698 N.ar    1  UNL1       -0.3361
     25 H          60.5155   86.2980   12.2643 H       1  UNL1        0.1674
     26 N          63.3124   90.3223   12.3615 N.pl3   1  UNL1       -0.3339
     27 H          63.7114   91.2132   12.4890 H       1  UNL1        0.1468
     28 N          60.3035   89.6528    9.0831 N.3     1  UNL1       -0.2726
     29 C          61.7699   89.6454    8.7681 C.3     1  UNL1        0.0738
     30 C          62.7730   89.8686    9.8609 C.3     1  UNL1        0.0368
     31 C          62.3095   90.0991   11.2687 C.3     1  UNL1        0.0718
     32 C          60.8429   90.1066   11.5837 C.3     1  UNL1        0.0368
     33 C          59.8399   89.8834   10.4909 C.3     1  UNL1        0.0738
     34 C          59.0553   88.0449    7.4687 C.3     1  UNL1        0.0188
     35 C          59.3005   89.4297    7.9903 C.3     1  UNL1        0.0721
@<TRIPOS>BOND
     1    34    35    1
     2    35    28    1
     3    28    29    1
     4    29    30    1
     5    30    31    1
     6    31    26    1
     7    26     1    1
     8     1     2   ar
     9     2     3   ar
    10     3     4   ar
    11     4     5   ar
    12     5     6   ar
    13     5     7    1
    14     7     8    2
    15     8    13    1
    16    13    14   ar
    17    14    15   ar
    18    15    16   ar
    19    16    17   ar
    20    17    18    1
    21    17    19   ar
    22     8    20    1
    23    20    21   ar
    24    21    22   ar
    25    22    23   ar
    26    23    24   ar
    27     7     9    1
    28     9    10    2
    29     9    11   am
    30    31    32    1
    31    32    33    1
    32    33    28    1
    33     6     1   ar
    34    19    13   ar
    35    24    20   ar
    36    11     4    1
    37    26    27    1
    38    24    25    1
    39    11    12    1
@<TRIPOS>MOLECULE
*****
 35 39 0 0 0
SMALL
GASTEIGER

@<TRIPOS>ATOM
      1 C          62.0653   89.4797   10.7833 C.ar    1  UNL1        0.0447
      2 C          61.9624   90.3445    9.5620 C.ar    1  UNL1        0.0156
      3 C          62.8390   91.5538    9.4233 C.ar    1  UNL1        0.0159
      4 C          63.8185   91.8982   10.5059 C.ar    1  UNL1        0.0507
      5 C          63.9214   91.0334   11.7271 C.ar    1  UNL1        0.0192
      6 C          63.0448   89.8241   11.8658 C.ar    1  UNL1        0.0157
      7 C          64.9724   91.6193   12.6227 C.2     1  UNL1        0.0578
      8 C          65.4015   91.0739   13.9525 C.2     1  UNL1        0.0384
      9 C          65.5191   92.8462   11.9550 C.2     1  UNL1        0.2496
     10 O          66.5908   93.7432   12.4999 O.2     1  UNL1       -0.2698
     11 N          64.8059   93.0186   10.6467 N.am    1  UNL1       -0.2804
     12 H          64.9590   93.7404    9.9948 H       1  UNL1        0.1552
     13 C          66.4711   91.7715   14.7395 C.ar    1  UNL1        0.0053
     14 C          66.1308   92.4415   16.0377 C.ar    1  UNL1        0.0002
     15 C          67.2005   93.1391   16.8246 C.ar    1  UNL1        0.0023
     16 C          68.6104   93.1667   16.3134 C.ar    1  UNL1        0.0296
     17 C          68.9506   92.4967   15.0152 C.ar    1  UNL1        0.1401
     18 F          70.3606   92.5244   14.5039 F       1  UNL1       -0.2042
     19 C          67.8810   91.7992   14.2282 C.ar    1  UNL1        0.0297
     20 C          64.7610   89.8311   14.4955 C.ar    1  UNL1        0.1407
     21 N          63.7838   89.7670   15.6318 N.ar    1  UNL1       -0.2254
     22 C          63.4039   88.3304   15.8362 C.ar    1  UNL1        0.1189
     23 C          64.1464   87.5065   14.8262 C.ar    1  UNL1        0.0945
     24 N          64.9851   88.4339   13.9977 N.ar    1  UNL1       -0.3361
     25 H          65.5784   88.1716   13.2572 H       1  UNL1        0.1674
     26 N          61.1887   88.2704   10.9220 N.pl3   1  UNL1       -0.3339
     27 H          60.6746   88.1274   11.7494 H       1  UNL1        0.1468
     28 N          60.9084   85.2964    7.5565 N.3     1  UNL1       -0.2726
     29 C          62.1656   85.3932    8.3690 C.3     1  UNL1        0.0738
     30 C          62.2590   86.3846    9.4909 C.3     1  UNL1        0.0368
     31 C          61.0953   87.2791    9.8002 C.3     1  UNL1        0.0718
     32 C          59.8381   87.1822    8.9876 C.3     1  UNL1        0.0368
     33 C          59.7447   86.1909    7.8658 C.3     1  UNL1        0.0738
     34 C          61.9126   84.2198    5.4158 C.3     1  UNL1        0.0188
     35 C          60.8150   84.3051    6.4347 C.3     1  UNL1        0.0721
@<TRIPOS>BOND
     1    34    35    1
     2    35    28    1
     3    28    29    1
     4    29    30    1
     5    30    31    1
     6    31    26    1
     7    26     1    1
     8     1     2   ar
     9     2     3   ar
    10     3     4   ar
    11     4     5   ar
    12     5     6   ar
    13     5     7    1
    14     7     8    2
    15     8    13    1
    16    13    14   ar
    17    14    15   ar
    18    15    16   ar
    19    16    17   ar
    20    17    18    1
    21    17    19   ar
    22     8    20    1
    23    20    21   ar
    24    21    22   ar
    25    22    23   ar
    26    23    24   ar
    27     7     9    1
    28     9    10    2
    29     9    11   am
    30    31    32    1
    31    32    33    1
    32    33    28    1
    33     6     1   ar
    34    19    13   ar
    35    24    20   ar
    36    11     4    1
    37    26    27    1
    38    24    25    1
    39    11    12    1
