@<TRIPOS>MOLECULE
*****
 34 37 0 0 0
SMALL
GASTEIGER

@<TRIPOS>ATOM
      1 C          63.8896   90.8170   11.8972 C.ar    1  UNL1        0.1549
      2 C          63.0156   90.8355   10.6783 C.ar    1  UNL1        0.0553
      3 C          62.2065   89.6252   10.3172 C.ar    1  UNL1        0.1753
      4 F          61.3324   89.6437    9.0982 F       1  UNL1       -0.2009
      5 C          62.2714   88.3964   11.1750 C.ar    1  UNL1        0.1681
      6 C          63.1453   88.3779   12.3939 C.ar    1  UNL1        0.0702
      7 C          63.9545   89.5882   12.7550 C.ar    1  UNL1        0.1620
      8 F          64.8285   89.5698   13.9739 F       1  UNL1       -0.2026
      9 O          64.1806   91.9544   13.6640 O.2     1  UNL1       -0.1498
     10 S          64.6988   92.0274   12.2583 S.O2    1  UNL1        0.0773
     11 O          65.2170   92.1004   10.8526 O.2     1  UNL1       -0.1498
     12 N          65.5079   93.2377   12.6194 N.pl3   1  UNL1       -0.1925
     13 H          65.2685   94.1181   12.2497 H       1  UNL1        0.1758
     14 C          66.6819   93.1065   13.5440 C.ar    1  UNL1        0.1977
     15 N          66.9041   93.8903   14.8035 N.ar    1  UNL1       -0.1997
     16 C          68.1992   93.4367   15.4092 C.ar    1  UNL1        0.2082
     17 N          68.7774   92.3725   14.5241 N.ar    1  UNL1       -0.1840
     18 S          67.8396   92.1685   13.3713 S.2     1  UNL1        0.0508
     19 O          61.4622   87.1861   10.8139 O.3     1  UNL1       -0.4731
     20 C          61.5633   85.9412   11.6444 C.3     1  UNL1        0.2071
     21 C          62.5988   84.9054   11.3204 C.3     1  UNL1        0.0635
     22 C          62.7591   84.4207    9.9100 C.3     1  UNL1        0.0726
     23 N          63.7946   83.3850    9.5861 N.3     1  UNL1       -0.2973
     24 C          64.6697   82.8339   10.6726 C.3     1  UNL1        0.0689
     25 C          64.5094   83.3186   12.0830 C.3     1  UNL1        0.0216
     26 C          63.4739   84.3543   12.4069 C.3     1  UNL1        0.0286
     27 H          64.4148   83.7967    8.8888 H       1  UNL1        0.1232
     28 C          63.3136   84.8391   13.8174 C.ar    1  UNL1       -0.0222
     29 C          64.1980   85.9321   14.3399 C.ar    1  UNL1       -0.0034
     30 C          64.0377   86.4169   15.7503 C.ar    1  UNL1        0.0111
     31 C          62.9929   85.8085   16.6383 C.ar    1  UNL1        0.0577
     32 CL         62.8326   86.2933   18.0487 Cl      1  UNL1       -0.0822
     33 C          62.1085   84.7155   16.1158 C.ar    1  UNL1        0.0111
     34 C          62.2688   84.2307   14.7053 C.ar    1  UNL1       -0.0034
@<TRIPOS>BOND
     1     9    10    2
     2    10    11    2
     3    10    12    1
     4    12    14    1
     5    14    15   ar
     6    15    16   ar
     7    16    17   ar
     8    17    18   ar
     9    10     1    1
    10     1     2   ar
    11     2     3   ar
    12     3     4    1
    13     3     5   ar
    14     5    19    1
    15    19    20    1
    16    21    20    1
    17    21    22    1
    18    22    23    1
    19    23    24    1
    20    24    25    1
    21    25    26    1
    22    26    28    1
    23    28    29   ar
    24    29    30   ar
    25    30    31   ar
    26    31    32    1
    27    31    33   ar
    28    33    34   ar
    29     5     6   ar
    30     6     7   ar
    31     7     8    1
    32    18    14   ar
    33     7     1   ar
    34    26    21    1
    35    34    28   ar
    36    12    13    1
    37    23    27    1
@<TRIPOS>MOLECULE
*****
 34 37 0 0 0
SMALL
GASTEIGER

@<TRIPOS>ATOM
      1 C          63.8357   90.9855   11.6602 C.ar    1  UNL1        0.1549
      2 C          62.9310   90.9309   10.4650 C.ar    1  UNL1        0.0553
      3 C          62.1145   89.7012   10.1981 C.ar    1  UNL1        0.1753
      4 F          61.2097   89.6465    9.0028 F       1  UNL1       -0.2009
      5 C          62.2027   88.5262   11.1263 C.ar    1  UNL1        0.1681
      6 C          63.1074   88.5809   12.3215 C.ar    1  UNL1        0.0702
      7 C          63.9239   89.8105   12.5884 C.ar    1  UNL1        0.1620
      8 F          64.8287   89.8652   13.7836 F       1  UNL1       -0.2026
      9 O          64.8374   92.4125   10.4518 O.2     1  UNL1       -0.1498
     10 S          64.6522   92.2152   11.9272 S.O2    1  UNL1        0.0773
     11 O          64.4670   92.0179   13.4026 O.2     1  UNL1       -0.1498
     12 N          65.4687   93.4448   12.1941 N.pl3   1  UNL1       -0.1925
     13 H          65.4330   93.8771   13.0780 H       1  UNL1        0.1758
     14 C          66.3395   94.0159   11.1145 C.ar    1  UNL1        0.1977
     15 N          67.4432   93.2954   10.3986 N.ar    1  UNL1       -0.1997
     16 C          68.0453   94.2419    9.4028 C.ar    1  UNL1        0.2082
     17 N          67.3137   95.5476    9.5034 N.ar    1  UNL1       -0.1840
     18 S          66.2594   95.4079   10.5613 S.2     1  UNL1        0.0508
     19 O          61.3862   87.2965   10.8593 O.3     1  UNL1       -0.4731
     20 C          61.5494   86.0846   11.7280 C.3     1  UNL1        0.2071
     21 C          62.5711   85.0434   11.3785 C.3     1  UNL1        0.0635
     22 C          62.7077   84.5728    9.9608 C.3     1  UNL1        0.0726
     23 N          63.7293   83.5316    9.6114 N.3     1  UNL1       -0.2973
     24 C          64.6143   82.9610   10.6796 C.3     1  UNL1        0.0689
     25 C          64.4777   83.4315   12.0973 C.3     1  UNL1        0.0216
     26 C          63.4561   84.4727   12.4467 C.3     1  UNL1        0.0286
     27 H          64.3436   83.9455    8.9101 H       1  UNL1        0.1232
     28 C          63.3194   84.9433   13.8645 C.ar    1  UNL1       -0.0222
     29 C          64.1760   86.0672   14.3675 C.ar    1  UNL1       -0.0034
     30 C          64.0394   86.5378   15.7852 C.ar    1  UNL1        0.0111
     31 C          63.0460   85.8846   16.6999 C.ar    1  UNL1        0.0577
     32 CL         62.9094   86.3552   18.1175 Cl      1  UNL1       -0.0822
     33 C          62.1894   84.7607   16.1968 C.ar    1  UNL1        0.0111
     34 C          62.3260   84.2901   14.7791 C.ar    1  UNL1       -0.0034
@<TRIPOS>BOND
     1     9    10    2
     2    10    11    2
     3    10    12    1
     4    12    14    1
     5    14    15   ar
     6    15    16   ar
     7    16    17   ar
     8    17    18   ar
     9    10     1    1
    10     1     2   ar
    11     2     3   ar
    12     3     4    1
    13     3     5   ar
    14     5    19    1
    15    19    20    1
    16    21    20    1
    17    21    22    1
    18    22    23    1
    19    23    24    1
    20    24    25    1
    21    25    26    1
    22    26    28    1
    23    28    29   ar
    24    29    30   ar
    25    30    31   ar
    26    31    32    1
    27    31    33   ar
    28    33    34   ar
    29     5     6   ar
    30     6     7   ar
    31     7     8    1
    32    18    14   ar
    33     7     1   ar
    34    26    21    1
    35    34    28   ar
    36    12    13    1
    37    23    27    1
@<TRIPOS>MOLECULE
*****
 34 37 0 0 0
SMALL
GASTEIGER

@<TRIPOS>ATOM
      1 C          63.3246   85.1620   15.2809 C.ar    1  UNL1        0.1549
      2 C          63.0698   85.9524   16.5300 C.ar    1  UNL1        0.0553
      3 C          63.3820   87.4190   16.5662 C.ar    1  UNL1        0.1753
      4 F          63.1272   88.2095   17.8154 F       1  UNL1       -0.2009
      5 C          63.9491   88.0953   15.3533 C.ar    1  UNL1        0.1681
      6 C          64.2039   87.3050   14.1042 C.ar    1  UNL1        0.0702
      7 C          63.8917   85.8383   14.0680 C.ar    1  UNL1        0.1620
      8 F          64.1465   85.0479   12.8188 F       1  UNL1       -0.2026
      9 O          64.4588   83.3814   15.4884 O.2     1  UNL1       -0.1498
     10 S          63.0124   83.6953   15.2446 S.O2    1  UNL1        0.0773
     11 O          61.5661   84.0091   15.0008 O.2     1  UNL1       -0.1498
     12 N          62.7003   82.2286   15.2083 N.pl3   1  UNL1       -0.1925
     13 H          62.4787   81.7517   16.0406 H       1  UNL1        0.1758
     14 C          62.7257   81.4884   13.9038 C.ar    1  UNL1        0.1977
     15 N          63.1381   82.0538   12.5771 N.ar    1  UNL1       -0.1997
     16 C          63.0104   80.9677   11.5505 C.ar    1  UNL1        0.2082
     17 N          62.5192   79.7309   12.2427 N.ar    1  UNL1       -0.1840
     18 S          62.3432   80.0527   13.6973 S.2     1  UNL1        0.0508
     19 O          64.2613   89.5621   15.3896 O.3     1  UNL1       -0.4731
     20 C          63.5698   90.4997   14.4448 C.3     1  UNL1        0.2071
     21 C          64.3740   91.3250   13.4845 C.3     1  UNL1        0.0635
     22 C          65.4660   92.2177   13.9948 C.3     1  UNL1        0.0726
     23 N          66.2702   93.0430   13.0345 N.3     1  UNL1       -0.2973
     24 C          65.9822   92.9756   11.5639 C.3     1  UNL1        0.0689
     25 C          64.8902   92.0829   11.0536 C.3     1  UNL1        0.0216
     26 C          64.0860   91.2576   12.0139 C.3     1  UNL1        0.0286
     27 H          67.2453   92.7699   13.1564 H       1  UNL1        0.1232
     28 C          62.9939   90.3649   11.5037 C.ar    1  UNL1       -0.0222
     29 C          61.7693   90.9617   10.8757 C.ar    1  UNL1       -0.0034
     30 C          60.6772   90.0690   10.3655 C.ar    1  UNL1        0.0111
     31 C          60.8096   88.5795   10.4832 C.ar    1  UNL1        0.0577
     32 CL         59.7175   87.6868    9.9730 Cl      1  UNL1       -0.0822
     33 C          62.0341   87.9827   11.1112 C.ar    1  UNL1        0.0111
     34 C          63.1263   88.8754   11.6215 C.ar    1  UNL1       -0.0034
@<TRIPOS>BOND
     1     9    10    2
     2    10    11    2
     3    10    12    1
     4    12    14    1
     5    14    15   ar
     6    15    16   ar
     7    16    17   ar
     8    17    18   ar
     9    10     1    1
    10     1     2   ar
    11     2     3   ar
    12     3     4    1
    13     3     5   ar
    14     5    19    1
    15    19    20    1
    16    21    20    1
    17    21    22    1
    18    22    23    1
    19    23    24    1
    20    24    25    1
    21    25    26    1
    22    26    28    1
    23    28    29   ar
    24    29    30   ar
    25    30    31   ar
    26    31    32    1
    27    31    33   ar
    28    33    34   ar
    29     5     6   ar
    30     6     7   ar
    31     7     8    1
    32    18    14   ar
    33     7     1   ar
    34    26    21    1
    35    34    28   ar
    36    12    13    1
    37    23    27    1
@<TRIPOS>MOLECULE
*****
 34 37 0 0 0
SMALL
GASTEIGER

@<TRIPOS>ATOM
      1 C          65.5852   92.2353   12.9179 C.ar    1  UNL1        0.1549
      2 C          64.4014   91.7249   12.1510 C.ar    1  UNL1        0.0553
      3 C          63.7381   90.4435   12.5608 C.ar    1  UNL1        0.1753
      4 F          62.5542   89.9331   11.7939 F       1  UNL1       -0.2009
      5 C          64.2586   89.6724   13.7375 C.ar    1  UNL1        0.1681
      6 C          65.4424   90.1828   14.5043 C.ar    1  UNL1        0.0702
      7 C          66.1057   91.4642   14.0945 C.ar    1  UNL1        0.1620
      8 F          67.2895   91.9746   14.8614 F       1  UNL1       -0.2026
      9 O          66.6231   92.9020   11.1921 O.2     1  UNL1       -0.1498
     10 S          66.2485   93.5168   12.5081 S.O2    1  UNL1        0.0773
     11 O          65.8739   94.1315   13.8240 O.2     1  UNL1       -0.1498
     12 N          66.9118   94.7981   12.0983 N.pl3   1  UNL1       -0.1925
     13 H          67.4641   95.2951   12.7443 H       1  UNL1        0.1758
     14 C          66.7337   95.3225   10.7042 C.ar    1  UNL1        0.1977
     15 N          67.6921   95.1407    9.5647 N.ar    1  UNL1       -0.1997
     16 C          67.1167   95.8264    8.3611 C.ar    1  UNL1        0.2082
     17 N          65.8026   96.4321    8.7568 N.ar    1  UNL1       -0.1840
     18 S          65.5659   96.1206   10.2049 S.2     1  UNL1        0.0508
     19 O          63.5953   88.3909   14.1472 O.3     1  UNL1       -0.4731
     20 C          63.5127   87.2467   13.1809 C.3     1  UNL1        0.2071
     21 C          63.6474   85.8367   13.6746 C.3     1  UNL1        0.0635
     22 C          64.1449   85.5732   15.0650 C.3     1  UNL1        0.0726
     23 N          64.2796   84.1633   15.5587 N.3     1  UNL1       -0.2973
     24 C          63.9168   83.0168   14.6621 C.3     1  UNL1        0.0689
     25 C          63.4194   83.2802   13.2717 C.3     1  UNL1        0.0216
     26 C          63.2847   84.6902   12.7780 C.3     1  UNL1        0.0286
     27 H          63.6927   84.0848   16.3892 H       1  UNL1        0.1232
     28 C          62.7872   84.9537   11.3876 C.ar    1  UNL1       -0.0222
     29 C          61.5738   85.8096   11.1749 C.ar    1  UNL1       -0.0034
     30 C          61.0763   86.0732    9.7846 C.ar    1  UNL1        0.0111
     31 C          61.7921   85.4808    8.6069 C.ar    1  UNL1        0.0577
     32 CL         61.2946   85.7443    7.2166 Cl      1  UNL1       -0.0822
     33 C          63.0055   84.6249    8.8197 C.ar    1  UNL1        0.0111
     34 C          63.5030   84.3614   10.2101 C.ar    1  UNL1       -0.0034
@<TRIPOS>BOND
     1     9    10    2
     2    10    11    2
     3    10    12    1
     4    12    14    1
     5    14    15   ar
     6    15    16   ar
     7    16    17   ar
     8    17    18   ar
     9    10     1    1
    10     1     2   ar
    11     2     3   ar
    12     3     4    1
    13     3     5   ar
    14     5    19    1
    15    19    20    1
    16    21    20    1
    17    21    22    1
    18    22    23    1
    19    23    24    1
    20    24    25    1
    21    25    26    1
    22    26    28    1
    23    28    29   ar
    24    29    30   ar
    25    30    31   ar
    26    31    32    1
    27    31    33   ar
    28    33    34   ar
    29     5     6   ar
    30     6     7   ar
    31     7     8    1
    32    18    14   ar
    33     7     1   ar
    34    26    21    1
    35    34    28   ar
    36    12    13    1
    37    23    27    1
@<TRIPOS>MOLECULE
*****
 34 37 0 0 0
SMALL
GASTEIGER

@<TRIPOS>ATOM
      1 C          63.3022   85.0541   15.2248 C.ar    1  UNL1        0.1549
      2 C          63.0771   85.8231   16.4928 C.ar    1  UNL1        0.0553
      3 C          63.4201   87.2820   16.5560 C.ar    1  UNL1        0.1753
      4 F          63.1950   88.0511   17.8240 F       1  UNL1       -0.2009
      5 C          63.9881   87.9718   15.3512 C.ar    1  UNL1        0.1681
      6 C          64.2132   87.2028   14.0832 C.ar    1  UNL1        0.0702
      7 C          63.8703   85.7439   14.0200 C.ar    1  UNL1        0.1620
      8 F          64.0954   84.9747   12.7520 F       1  UNL1       -0.2026
      9 O          64.3467   83.2494   15.6147 O.2     1  UNL1       -0.1498
     10 S          62.9593   83.5951   15.1615 S.O2    1  UNL1        0.0773
     11 O          61.5718   83.9409   14.7084 O.2     1  UNL1       -0.1498
     12 N          62.6164   82.1362   15.0983 N.pl3   1  UNL1       -0.1925
     13 H          62.3551   81.6561   15.9171 H       1  UNL1        0.1758
     14 C          62.6716   81.4089   13.7875 C.ar    1  UNL1        0.1977
     15 N          63.0982   81.9920   12.4730 N.ar    1  UNL1       -0.1997
     16 C          63.0002   80.9142   11.4343 C.ar    1  UNL1        0.2082
     17 N          62.5130   79.6651   12.1069 N.ar    1  UNL1       -0.1840
     18 S          62.3100   79.9708   13.5614 S.2     1  UNL1        0.0508
     19 O          64.3311   89.4308   15.4144 O.3     1  UNL1       -0.4731
     20 C          63.4046   90.4457   14.8133 C.3     1  UNL1        0.2071
     21 C          63.3806   90.6524   13.3277 C.3     1  UNL1        0.0635
     22 C          62.2597   90.0835   12.5093 C.3     1  UNL1        0.0726
     23 N          62.2358   90.2902   11.0239 N.3     1  UNL1       -0.2973
     24 C          63.3328   91.0658   10.3568 C.3     1  UNL1        0.0689
     25 C          64.4537   91.6347   11.1752 C.3     1  UNL1        0.0216
     26 C          64.4776   91.4280   12.6607 C.3     1  UNL1        0.0286
     27 H          61.3622   90.7701   10.8074 H       1  UNL1        0.1232
     28 C          65.5986   91.9970   13.4791 C.ar    1  UNL1       -0.0222
     29 C          65.8656   93.4729   13.4620 C.ar    1  UNL1       -0.0034
     30 C          66.9865   94.0419   14.2804 C.ar    1  UNL1        0.0111
     31 C          67.8404   93.1349   15.1160 C.ar    1  UNL1        0.0577
     32 CL         68.9613   93.7039   15.9345 Cl      1  UNL1       -0.0822
     33 C          67.5734   91.6590   15.1332 C.ar    1  UNL1        0.0111
     34 C          66.4525   91.0900   14.3147 C.ar    1  UNL1       -0.0034
@<TRIPOS>BOND
     1     9    10    2
     2    10    11    2
     3    10    12    1
     4    12    14    1
     5    14    15   ar
     6    15    16   ar
     7    16    17   ar
     8    17    18   ar
     9    10     1    1
    10     1     2   ar
    11     2     3   ar
    12     3     4    1
    13     3     5   ar
    14     5    19    1
    15    19    20    1
    16    21    20    1
    17    21    22    1
    18    22    23    1
    19    23    24    1
    20    24    25    1
    21    25    26    1
    22    26    28    1
    23    28    29   ar
    24    29    30   ar
    25    30    31   ar
    26    31    32    1
    27    31    33   ar
    28    33    34   ar
    29     5     6   ar
    30     6     7   ar
    31     7     8    1
    32    18    14   ar
    33     7     1   ar
    34    26    21    1
    35    34    28   ar
    36    12    13    1
    37    23    27    1
@<TRIPOS>MOLECULE
*****
 34 37 0 0 0
SMALL
GASTEIGER

@<TRIPOS>ATOM
      1 C          64.8584   91.9632   12.0067 C.ar    1  UNL1        0.1549
      2 C          64.7682   91.1544   13.2668 C.ar    1  UNL1        0.0553
      3 C          63.6554   90.1645   13.4445 C.ar    1  UNL1        0.1753
      4 F          63.5653   89.3556   14.7046 F       1  UNL1       -0.2009
      5 C          62.6328   89.9833   12.3622 C.ar    1  UNL1        0.1681
      6 C          62.7229   90.7921   11.1022 C.ar    1  UNL1        0.0702
      7 C          63.8357   91.7820   10.9245 C.ar    1  UNL1        0.1620
      8 F          63.9259   92.5909    9.6644 F       1  UNL1       -0.2026
      9 O          65.6681   93.5361   13.1774 O.2     1  UNL1       -0.1498
     10 S          65.9712   92.9532   11.8290 S.O2    1  UNL1        0.0773
     11 O          66.2744   92.3704   10.4805 O.2     1  UNL1       -0.1498
     12 N          67.0840   93.9432   11.6512 N.pl3   1  UNL1       -0.1925
     13 H          67.8562   93.9307   12.2618 H       1  UNL1        0.1758
     14 C          67.0203   94.9523   10.5432 C.ar    1  UNL1        0.1977
     15 N          67.8942   94.9797    9.3243 N.ar    1  UNL1       -0.1997
     16 C          67.4855   96.1555    8.4873 C.ar    1  UNL1        0.2082
     17 N          66.3590   96.8547    9.1889 N.ar    1  UNL1       -0.1840
     18 S          66.0715   96.1111   10.4595 S.2     1  UNL1        0.0508
     19 O          61.5199   88.9933   12.5400 O.3     1  UNL1       -0.4731
     20 C          61.5928   87.6543   11.8679 C.3     1  UNL1        0.2071
     21 C          61.0612   87.4840   10.4756 C.3     1  UNL1        0.0635
     22 C          60.1900   88.5446    9.8705 C.3     1  UNL1        0.0726
     23 N          59.6584   88.3742    8.4782 N.3     1  UNL1       -0.2973
     24 C          59.9981   87.1434    7.6911 C.3     1  UNL1        0.0689
     25 C          60.8693   86.0828    8.2962 C.3     1  UNL1        0.0216
     26 C          61.4009   86.2531    9.6884 C.3     1  UNL1        0.0286
     27 H          59.9916   89.1716    7.9363 H       1  UNL1        0.1232
     28 C          62.2721   85.1926   10.2936 C.ar    1  UNL1       -0.0222
     29 C          62.1859   84.8989   11.7620 C.ar    1  UNL1       -0.0034
     30 C          63.0571   83.8384   12.3672 C.ar    1  UNL1        0.0111
     31 C          64.0146   83.0715   11.5040 C.ar    1  UNL1        0.0577
     32 CL         64.8858   82.0110   12.1091 Cl      1  UNL1       -0.0822
     33 C          64.1008   83.3652   10.0355 C.ar    1  UNL1        0.0111
     34 C          63.2296   84.4258    9.4303 C.ar    1  UNL1       -0.0034
@<TRIPOS>BOND
     1     9    10    2
     2    10    11    2
     3    10    12    1
     4    12    14    1
     5    14    15   ar
     6    15    16   ar
     7    16    17   ar
     8    17    18   ar
     9    10     1    1
    10     1     2   ar
    11     2     3   ar
    12     3     4    1
    13     3     5   ar
    14     5    19    1
    15    19    20    1
    16    21    20    1
    17    21    22    1
    18    22    23    1
    19    23    24    1
    20    24    25    1
    21    25    26    1
    22    26    28    1
    23    28    29   ar
    24    29    30   ar
    25    30    31   ar
    26    31    32    1
    27    31    33   ar
    28    33    34   ar
    29     5     6   ar
    30     6     7   ar
    31     7     8    1
    32    18    14   ar
    33     7     1   ar
    34    26    21    1
    35    34    28   ar
    36    12    13    1
    37    23    27    1
@<TRIPOS>MOLECULE
*****
 34 37 0 0 0
SMALL
GASTEIGER

@<TRIPOS>ATOM
      1 C          62.6061   86.4132   11.5158 C.ar    1  UNL1        0.1549
      2 C          61.9692   87.3096   10.4957 C.ar    1  UNL1        0.0553
      3 C          62.0731   88.7993   10.6371 C.ar    1  UNL1        0.1753
      4 F          61.4362   89.6958    9.6170 F       1  UNL1       -0.2009
      5 C          62.8139   89.3925   11.7988 C.ar    1  UNL1        0.1681
      6 C          63.4508   88.4960   12.8189 C.ar    1  UNL1        0.0702
      7 C          63.3469   87.0064   12.6774 C.ar    1  UNL1        0.1620
      8 F          63.9838   86.1098   13.6976 F       1  UNL1       -0.2026
      9 O          63.0451   85.0181    9.9793 O.2     1  UNL1       -0.1498
     10 S          62.5022   84.9234   11.3744 S.O2    1  UNL1        0.0773
     11 O          61.9594   84.8288   12.7694 O.2     1  UNL1       -0.1498
     12 N          62.3984   83.4337   11.2329 N.pl3   1  UNL1       -0.1925
     13 H          62.1217   83.0389   10.3745 H       1  UNL1        0.1758
     14 C          62.7162   82.5456   12.3992 C.ar    1  UNL1        0.1977
     15 N          61.7508   81.6432   13.1090 N.ar    1  UNL1       -0.1997
     16 C          62.4931   80.9439   14.2090 C.ar    1  UNL1        0.2082
     17 N          63.9173   81.4140   14.1790 N.ar    1  UNL1       -0.1840
     18 S          64.0551   82.4040   13.0604 S.2     1  UNL1        0.0508
     19 O          62.9178   90.8822   11.9402 O.3     1  UNL1       -0.4731
     20 C          64.2589   91.5505   11.8709 C.3     1  UNL1        0.2071
     21 C          64.9738   91.9301   13.1338 C.3     1  UNL1        0.0635
     22 C          64.5933   91.2857   14.4338 C.3     1  UNL1        0.0726
     23 N          65.3083   91.6653   15.6965 N.3     1  UNL1       -0.2973
     24 C          66.4038   92.6893   15.6594 C.3     1  UNL1        0.0689
     25 C          66.7843   93.3337   14.3594 C.3     1  UNL1        0.0216
     26 C          66.0693   92.9541   13.0966 C.3     1  UNL1        0.0286
     27 H          65.7176   90.8097   16.0717 H       1  UNL1        0.1232
     28 C          66.4498   93.5985   11.7966 C.ar    1  UNL1       -0.0222
     29 C          66.0781   95.0272   11.5306 C.ar    1  UNL1       -0.0034
     30 C          66.4586   95.6715   10.2306 C.ar    1  UNL1        0.0111
     31 C          67.2107   94.8873    9.1965 C.ar    1  UNL1        0.0577
     32 CL         67.5912   95.5316    7.8966 Cl      1  UNL1       -0.0822
     33 C          67.5824   93.4586    9.4625 C.ar    1  UNL1        0.0111
     34 C          67.2019   92.8142   10.7626 C.ar    1  UNL1       -0.0034
@<TRIPOS>BOND
     1     9    10    2
     2    10    11    2
     3    10    12    1
     4    12    14    1
     5    14    15   ar
     6    15    16   ar
     7    16    17   ar
     8    17    18   ar
     9    10     1    1
    10     1     2   ar
    11     2     3   ar
    12     3     4    1
    13     3     5   ar
    14     5    19    1
    15    19    20    1
    16    21    20    1
    17    21    22    1
    18    22    23    1
    19    23    24    1
    20    24    25    1
    21    25    26    1
    22    26    28    1
    23    28    29   ar
    24    29    30   ar
    25    30    31   ar
    26    31    32    1
    27    31    33   ar
    28    33    34   ar
    29     5     6   ar
    30     6     7   ar
    31     7     8    1
    32    18    14   ar
    33     7     1   ar
    34    26    21    1
    35    34    28   ar
    36    12    13    1
    37    23    27    1
@<TRIPOS>MOLECULE
*****
 34 37 0 0 0
SMALL
GASTEIGER

@<TRIPOS>ATOM
      1 C          62.8005   84.9418   10.9328 C.ar    1  UNL1        0.1549
      2 C          62.1701   85.6486    9.7695 C.ar    1  UNL1        0.0553
      3 C          61.9268   87.1273    9.8328 C.ar    1  UNL1        0.1753
      4 F          61.2964   87.8341    8.6695 F       1  UNL1       -0.2009
      5 C          62.3138   87.8993   11.0592 C.ar    1  UNL1        0.1681
      6 C          62.9441   87.1926   12.2224 C.ar    1  UNL1        0.0702
      7 C          63.1875   85.7139   12.1592 C.ar    1  UNL1        0.1620
      8 F          63.8179   85.0071   13.3225 F       1  UNL1       -0.2026
      9 O          64.0451   83.6747    9.7729 O.2     1  UNL1       -0.1498
     10 S          63.0439   83.4630   10.8696 S.O2    1  UNL1        0.0773
     11 O          62.0427   83.2513   11.9662 O.2     1  UNL1       -0.1498
     12 N          63.2873   81.9843   10.8064 N.pl3   1  UNL1       -0.1925
     13 H          63.4871   81.5547    9.9433 H       1  UNL1        0.1758
     14 C          63.2262   81.1599   12.0581 C.ar    1  UNL1        0.1977
     15 N          62.4181   79.9113   12.2530 N.ar    1  UNL1       -0.1997
     16 C          62.6551   79.4192   13.6500 C.ar    1  UNL1        0.2082
     17 N          63.6097   80.3637   14.3186 N.ar    1  UNL1       -0.1840
     18 S          63.9627   81.4395   13.3346 S.2     1  UNL1        0.0508
     19 O          62.0704   89.3782   11.1224 O.3     1  UNL1       -0.4731
     20 C          62.3841   90.1369   12.3777 C.3     1  UNL1        0.2071
     21 C          63.7038   90.8352   12.5221 C.3     1  UNL1        0.0635
     22 C          64.1579   91.8052   11.4720 C.3     1  UNL1        0.0726
     23 N          65.4776   92.5034   11.6164 N.3     1  UNL1       -0.2973
     24 C          66.3431   92.2317   12.8110 C.3     1  UNL1        0.0689
     25 C          65.8889   91.2618   13.8612 C.3     1  UNL1        0.0216
     26 C          64.5693   90.5635   13.7167 C.3     1  UNL1        0.0286
     27 H          65.2826   93.5046   11.6157 H       1  UNL1        0.1232
     28 C          64.1151   89.5935   14.7669 C.ar    1  UNL1       -0.0222
     29 C          64.4648   88.1398   14.6467 C.ar    1  UNL1       -0.0034
     30 C          64.0107   87.1698   15.6968 C.ar    1  UNL1        0.0111
     31 C          63.2067   87.6534   16.8672 C.ar    1  UNL1        0.0577
     32 CL         62.7526   86.6834   17.9173 Cl      1  UNL1       -0.0822
     33 C          62.8570   89.1071   16.9875 C.ar    1  UNL1        0.0111
     34 C          63.3112   90.0772   15.9373 C.ar    1  UNL1       -0.0034
@<TRIPOS>BOND
     1     9    10    2
     2    10    11    2
     3    10    12    1
     4    12    14    1
     5    14    15   ar
     6    15    16   ar
     7    16    17   ar
     8    17    18   ar
     9    10     1    1
    10     1     2   ar
    11     2     3   ar
    12     3     4    1
    13     3     5   ar
    14     5    19    1
    15    19    20    1
    16    21    20    1
    17    21    22    1
    18    22    23    1
    19    23    24    1
    20    24    25    1
    21    25    26    1
    22    26    28    1
    23    28    29   ar
    24    29    30   ar
    25    30    31   ar
    26    31    32    1
    27    31    33   ar
    28    33    34   ar
    29     5     6   ar
    30     6     7   ar
    31     7     8    1
    32    18    14   ar
    33     7     1   ar
    34    26    21    1
    35    34    28   ar
    36    12    13    1
    37    23    27    1
@<TRIPOS>MOLECULE
*****
 34 37 0 0 0
SMALL
GASTEIGER

@<TRIPOS>ATOM
      1 C          63.6660   85.9787   13.6743 C.ar    1  UNL1        0.1549
      2 C          63.0675   86.2658   12.3292 C.ar    1  UNL1        0.0553
      3 C          62.8921   87.6841   11.8737 C.ar    1  UNL1        0.1753
      4 F          62.2936   87.9713   10.5285 F       1  UNL1       -0.2009
      5 C          63.3153   88.8153   12.7633 C.ar    1  UNL1        0.1681
      6 C          63.9137   88.5282   14.1083 C.ar    1  UNL1        0.0702
      7 C          64.0891   87.1099   14.5638 C.ar    1  UNL1        0.1620
      8 F          64.6876   86.8227   15.9090 F       1  UNL1       -0.2026
      9 O          65.3089   84.6460   13.8316 O.2     1  UNL1       -0.1498
     10 S          63.8414   84.5603   14.1298 S.O2    1  UNL1        0.0773
     11 O          62.3739   84.4745   14.4281 O.2     1  UNL1       -0.1498
     12 N          64.0169   83.1420   14.5854 N.pl3   1  UNL1       -0.1925
     13 H          64.5123   82.9488   15.4139 H       1  UNL1        0.1758
     14 C          63.4374   82.0179   13.7786 C.ar    1  UNL1        0.1977
     15 N          62.7847   80.7839   14.3273 N.ar    1  UNL1       -0.1997
     16 C          62.3528   79.9340   13.1692 C.ar    1  UNL1        0.2082
     17 N          62.7387   80.6427   11.9047 N.ar    1  UNL1       -0.1840
     18 S          63.4090   81.9307   12.2814 S.2     1  UNL1        0.0508
     19 O          63.1398   90.2337   12.3077 O.3     1  UNL1       -0.4731
     20 C          64.3348   91.1294   12.1666 C.3     1  UNL1        0.2071
     21 C          64.9850   91.7103   13.3872 C.3     1  UNL1        0.0635
     22 C          64.4746   91.3518   14.7514 C.3     1  UNL1        0.0726
     23 N          65.1248   91.9327   15.9719 N.3     1  UNL1       -0.2973
     24 C          66.2854   92.8721   15.8283 C.3     1  UNL1        0.0689
     25 C          66.7958   93.2305   14.4642 C.3     1  UNL1        0.0216
     26 C          66.1456   92.6496   13.2436 C.3     1  UNL1        0.0286
     27 H          65.4501   91.1466   16.5346 H       1  UNL1        0.1232
     28 C          66.6560   93.0081   11.8794 C.ar    1  UNL1       -0.0222
     29 C          67.6878   92.1461   11.2143 C.ar    1  UNL1       -0.0034
     30 C          68.1982   92.5044    9.8501 C.ar    1  UNL1        0.0111
     31 C          67.6768   93.7249    9.1510 C.ar    1  UNL1        0.0577
     32 CL         68.1872   94.0833    7.7868 Cl      1  UNL1       -0.0822
     33 C          66.6450   94.5869    9.8160 C.ar    1  UNL1        0.0111
     34 C          66.1346   94.2284   11.1803 C.ar    1  UNL1       -0.0034
@<TRIPOS>BOND
     1     9    10    2
     2    10    11    2
     3    10    12    1
     4    12    14    1
     5    14    15   ar
     6    15    16   ar
     7    16    17   ar
     8    17    18   ar
     9    10     1    1
    10     1     2   ar
    11     2     3   ar
    12     3     4    1
    13     3     5   ar
    14     5    19    1
    15    19    20    1
    16    21    20    1
    17    21    22    1
    18    22    23    1
    19    23    24    1
    20    24    25    1
    21    25    26    1
    22    26    28    1
    23    28    29   ar
    24    29    30   ar
    25    30    31   ar
    26    31    32    1
    27    31    33   ar
    28    33    34   ar
    29     5     6   ar
    30     6     7   ar
    31     7     8    1
    32    18    14   ar
    33     7     1   ar
    34    26    21    1
    35    34    28   ar
    36    12    13    1
    37    23    27    1
