@<TRIPOS>MOLECULE
*****
 30 33 0 0 0
SMALL
GASTEIGER

@<TRIPOS>ATOM
      1 N          59.6251   88.3611   10.6373 N.pl3   1  UNL1       -0.3039
      2 H          58.6820   88.1517   10.8266 H       1  UNL1        0.1496
      3 C          60.2524   87.3772    7.8736 C.3     1  UNL1        0.1363
      4 N          60.9290   86.7592    9.0612 N.ar    1  UNL1       -0.2669
      5 C          60.6154   87.2512   10.4431 C.ar    1  UNL1        0.2002
      6 N          61.2919   86.6333   11.6307 N.ar    1  UNL1       -0.2150
      7 C          62.2822   85.5235   11.4365 C.ar    1  UNL1        0.0895
      8 C          62.9588   84.9056   12.6241 C.ar    1  UNL1        0.0307
      9 C          63.9489   83.7958   12.4298 C.ar    1  UNL1        0.0592
     10 CL         64.6256   83.1779   13.6174 Cl      1  UNL1       -0.0822
     11 C          64.2626   83.3038   11.0479 C.ar    1  UNL1        0.0116
     12 C          63.5860   83.9217    9.8603 C.ar    1  UNL1        0.0071
     13 C          62.5958   85.0315   10.0546 C.ar    1  UNL1        0.0740
     14 C          61.9192   85.6494    8.8669 C.ar    1  UNL1        0.2643
     15 O          62.2328   85.1575    7.4850 O.2     1  UNL1       -0.2668
     16 C          60.0719   89.7899   10.5431 C.3     1  UNL1        0.0942
     17 C          61.4233   90.1175    9.9806 C.3     1  UNL1        0.0476
     18 C          62.5279   90.5619   10.8931 C.ar    1  UNL1       -0.0205
     19 C          63.5493   91.5480   10.4092 C.ar    1  UNL1       -0.0041
     20 C          64.6539   91.9924   11.3216 C.ar    1  UNL1        0.0027
     21 C          64.7370   91.4506   12.7178 C.ar    1  UNL1        0.0358
     22 C          63.7155   90.4645   13.2017 C.ar    1  UNL1        0.0027
     23 C          62.6109   90.0201   12.2893 C.ar    1  UNL1       -0.0041
     24 C          65.8416   91.8950   13.6303 C.ar    1  UNL1        0.1623
     25 N          65.5265   92.3416   15.0272 N.ar    1  UNL1       -0.2241
     26 C          66.6310   92.7859   15.9396 C.ar    1  UNL1        0.1135
     27 C          68.0506   92.7837   15.4552 C.ar    1  UNL1        0.0959
     28 CL         69.1551   93.2280   16.3676 Cl      1  UNL1       -0.0790
     29 C          68.3657   92.3371   14.0583 C.ar    1  UNL1        0.1135
     30 N          67.2611   91.8927   13.1459 N.ar    1  UNL1       -0.2241
@<TRIPOS>BOND
     1     3     4    1
     2     4     5   ar
     3     5     1    1
     4     1    16    1
     5    16    17    1
     6    17    18    1
     7    18    19   ar
     8    19    20   ar
     9    20    21   ar
    10    21    24    1
    11    24    25   ar
    12    25    26   ar
    13    26    27   ar
    14    27    28    1
    15    27    29   ar
    16    29    30   ar
    17    21    22   ar
    18    22    23   ar
    19     5     6   ar
    20     6     7   ar
    21     7     8   ar
    22     8     9   ar
    23     9    10    1
    24     9    11   ar
    25    11    12   ar
    26    12    13   ar
    27    13    14   ar
    28    14    15    2
    29    14     4   ar
    30    23    18   ar
    31    13     7   ar
    32    30    24   ar
    33     1     2    1
@<TRIPOS>MOLECULE
*****
 30 33 0 0 0
SMALL
GASTEIGER

@<TRIPOS>ATOM
      1 N          62.8850   83.8180   15.1937 N.pl3   1  UNL1       -0.3039
      2 H          63.3307   83.0329   15.5863 H       1  UNL1        0.1496
      3 C          64.4782   81.9729   13.4452 C.3     1  UNL1        0.1363
      4 N          63.7313   83.1231   12.8376 N.ar    1  UNL1       -0.2669
      5 C          62.9347   84.0457   13.7119 C.ar    1  UNL1        0.2002
      6 N          62.1877   85.1958   13.1043 N.ar    1  UNL1       -0.2150
      7 C          62.2374   85.4235   11.6225 C.ar    1  UNL1        0.0895
      8 C          61.4905   86.5737   11.0149 C.ar    1  UNL1        0.0307
      9 C          61.5402   86.8013    9.5332 C.ar    1  UNL1        0.0592
     10 CL         60.7932   87.9515    8.9256 Cl      1  UNL1       -0.0822
     11 C          62.3368   85.8787    8.6589 C.ar    1  UNL1        0.0116
     12 C          63.0837   84.7285    9.2665 C.ar    1  UNL1        0.0071
     13 C          63.0340   84.5009   10.7482 C.ar    1  UNL1        0.0740
     14 C          63.7810   83.3507   11.3559 C.ar    1  UNL1        0.2643
     15 O          64.5776   82.4282   10.4816 O.2     1  UNL1       -0.2668
     16 C          62.1562   84.7865   16.0773 C.3     1  UNL1        0.0942
     17 C          62.9242   85.7997   16.8733 C.3     1  UNL1        0.0476
     18 C          63.4138   87.0558   16.2155 C.ar    1  UNL1       -0.0205
     19 C          63.0468   88.3934   16.7865 C.ar    1  UNL1       -0.0041
     20 C          63.5364   89.6495   16.1288 C.ar    1  UNL1        0.0027
     21 C          64.3930   89.5678   14.9001 C.ar    1  UNL1        0.0358
     22 C          64.7600   88.2302   14.3292 C.ar    1  UNL1        0.0027
     23 C          64.2704   86.9741   14.9869 C.ar    1  UNL1       -0.0041
     24 C          64.8826   90.8239   14.2424 C.ar    1  UNL1        0.1623
     25 N          65.7180   91.7996   15.0171 N.ar    1  UNL1       -0.2241
     26 C          66.2076   93.0556   14.3594 C.ar    1  UNL1        0.1135
     27 C          65.8619   93.3360   12.9269 C.ar    1  UNL1        0.0959
     28 CL         66.3515   94.5921   12.2692 Cl      1  UNL1       -0.0790
     29 C          65.0265   92.3604   12.1522 C.ar    1  UNL1        0.1135
     30 N          64.5368   91.1043   12.8100 N.ar    1  UNL1       -0.2241
@<TRIPOS>BOND
     1     3     4    1
     2     4     5   ar
     3     5     1    1
     4     1    16    1
     5    16    17    1
     6    17    18    1
     7    18    19   ar
     8    19    20   ar
     9    20    21   ar
    10    21    24    1
    11    24    25   ar
    12    25    26   ar
    13    26    27   ar
    14    27    28    1
    15    27    29   ar
    16    29    30   ar
    17    21    22   ar
    18    22    23   ar
    19     5     6   ar
    20     6     7   ar
    21     7     8   ar
    22     8     9   ar
    23     9    10    1
    24     9    11   ar
    25    11    12   ar
    26    12    13   ar
    27    13    14   ar
    28    14    15    2
    29    14     4   ar
    30    23    18   ar
    31    13     7   ar
    32    30    24   ar
    33     1     2    1
@<TRIPOS>MOLECULE
*****
 30 33 0 0 0
SMALL
GASTEIGER

@<TRIPOS>ATOM
      1 N          61.2730   86.8407    9.2787 N.pl3   1  UNL1       -0.3039
      2 H          61.2039   86.6951    8.3075 H       1  UNL1        0.1496
      3 C          63.1274   84.8460    8.0208 C.3     1  UNL1        0.1363
      4 N          62.9264   84.8497    9.5074 N.ar    1  UNL1       -0.2669
      5 C          61.9992   85.8470   10.1363 C.ar    1  UNL1        0.2002
      6 N          61.7982   85.8508   11.6227 N.ar    1  UNL1       -0.2150
      7 C          62.5244   84.8572   12.4803 C.ar    1  UNL1        0.0895
      8 C          62.3234   84.8609   13.9667 C.ar    1  UNL1        0.0307
      9 C          63.0496   83.8673   14.8242 C.ar    1  UNL1        0.0592
     10 CL         62.8486   83.8710   16.3108 Cl      1  UNL1       -0.0822
     11 C          63.9768   82.8699   14.1953 C.ar    1  UNL1        0.0116
     12 C          64.1778   82.8662   12.7089 C.ar    1  UNL1        0.0071
     13 C          63.4516   83.8598   11.8514 C.ar    1  UNL1        0.0740
     14 C          63.6526   83.8561   10.3648 C.ar    1  UNL1        0.2643
     15 O          64.5798   82.8587    9.7359 O.2     1  UNL1       -0.2668
     16 C          60.6521   88.0561    9.9009 C.3     1  UNL1        0.0942
     17 C          61.1993   89.4185    9.5936 C.3     1  UNL1        0.0476
     18 C          62.2294   90.0336   10.4940 C.ar    1  UNL1       -0.0205
     19 C          63.0238   91.2169   10.0262 C.ar    1  UNL1       -0.0041
     20 C          64.0539   91.8320   10.9264 C.ar    1  UNL1        0.0027
     21 C          64.2895   91.2639   12.2945 C.ar    1  UNL1        0.0358
     22 C          63.4951   90.0807   12.7623 C.ar    1  UNL1        0.0027
     23 C          62.4650   89.4655   11.8620 C.ar    1  UNL1       -0.0041
     24 C          65.3196   91.8790   13.1949 C.ar    1  UNL1        0.1623
     25 N          65.7065   93.3176   13.0189 N.ar    1  UNL1       -0.2241
     26 C          66.7366   93.9327   13.9192 C.ar    1  UNL1        0.1135
     27 C          67.3798   93.1093   14.9955 C.ar    1  UNL1        0.0959
     28 CL         68.4098   93.7245   15.8958 Cl      1  UNL1       -0.0790
     29 C          66.9929   91.6708   15.1715 C.ar    1  UNL1        0.1135
     30 N          65.9627   91.0557   14.2711 N.ar    1  UNL1       -0.2241
@<TRIPOS>BOND
     1     3     4    1
     2     4     5   ar
     3     5     1    1
     4     1    16    1
     5    16    17    1
     6    17    18    1
     7    18    19   ar
     8    19    20   ar
     9    20    21   ar
    10    21    24    1
    11    24    25   ar
    12    25    26   ar
    13    26    27   ar
    14    27    28    1
    15    27    29   ar
    16    29    30   ar
    17    21    22   ar
    18    22    23   ar
    19     5     6   ar
    20     6     7   ar
    21     7     8   ar
    22     8     9   ar
    23     9    10    1
    24     9    11   ar
    25    11    12   ar
    26    12    13   ar
    27    13    14   ar
    28    14    15    2
    29    14     4   ar
    30    23    18   ar
    31    13     7   ar
    32    30    24   ar
    33     1     2    1
@<TRIPOS>MOLECULE
*****
 30 33 0 0 0
SMALL
GASTEIGER

@<TRIPOS>ATOM
      1 N          64.2197   87.8131   14.4388 N.pl3   1  UNL1       -0.3039
      2 H          64.9824   87.3190   14.8174 H       1  UNL1        0.1496
      3 C          64.1382   84.8548   13.9473 C.3     1  UNL1        0.1363
      4 N          63.4535   85.7920   12.9971 N.ar    1  UNL1       -0.2669
      5 C          63.4942   87.2712   13.2428 C.ar    1  UNL1        0.2002
      6 N          62.8096   88.2084   12.2927 N.ar    1  UNL1       -0.2150
      7 C          62.0842   87.6665   11.0968 C.ar    1  UNL1        0.0895
      8 C          61.3995   88.6037   10.1467 C.ar    1  UNL1        0.0307
      9 C          60.6741   88.0618    8.9508 C.ar    1  UNL1        0.0592
     10 CL         59.9894   88.9990    8.0006 Cl      1  UNL1       -0.0822
     11 C          60.6334   86.5826    8.7051 C.ar    1  UNL1        0.0116
     12 C          61.3180   85.6454    9.6553 C.ar    1  UNL1        0.0071
     13 C          62.0434   86.1873   10.8511 C.ar    1  UNL1        0.0740
     14 C          62.7281   85.2501   11.8013 C.ar    1  UNL1        0.2643
     15 O          62.6874   83.7709   11.5556 O.2     1  UNL1       -0.2668
     16 C          63.7830   89.1078   15.0577 C.3     1  UNL1        0.0942
     17 C          64.7924   90.1790   15.3466 C.3     1  UNL1        0.0476
     18 C          65.2063   91.1312   14.2640 C.ar    1  UNL1       -0.0205
     19 C          66.4274   91.9840   14.4417 C.ar    1  UNL1       -0.0041
     20 C          66.8413   92.9362   13.3592 C.ar    1  UNL1        0.0027
     21 C          66.0340   93.0356   12.0988 C.ar    1  UNL1        0.0358
     22 C          64.8129   92.1828   11.9211 C.ar    1  UNL1        0.0027
     23 C          64.3990   91.2306   13.0037 C.ar    1  UNL1       -0.0041
     24 C          66.4479   93.9878   11.0162 C.ar    1  UNL1        0.1623
     25 N          66.2001   95.4585   11.1759 N.ar    1  UNL1       -0.2241
     26 C          66.6140   96.4107   10.0933 C.ar    1  UNL1        0.1135
     27 C          67.2756   95.8922    8.8510 C.ar    1  UNL1        0.0959
     28 CL         67.6895   96.8444    7.7684 Cl      1  UNL1       -0.0790
     29 C          67.5234   94.4215    8.6912 C.ar    1  UNL1        0.1135
     30 N          67.1095   93.4693    9.7739 N.ar    1  UNL1       -0.2241
@<TRIPOS>BOND
     1     3     4    1
     2     4     5   ar
     3     5     1    1
     4     1    16    1
     5    16    17    1
     6    17    18    1
     7    18    19   ar
     8    19    20   ar
     9    20    21   ar
    10    21    24    1
    11    24    25   ar
    12    25    26   ar
    13    26    27   ar
    14    27    28    1
    15    27    29   ar
    16    29    30   ar
    17    21    22   ar
    18    22    23   ar
    19     5     6   ar
    20     6     7   ar
    21     7     8   ar
    22     8     9   ar
    23     9    10    1
    24     9    11   ar
    25    11    12   ar
    26    12    13   ar
    27    13    14   ar
    28    14    15    2
    29    14     4   ar
    30    23    18   ar
    31    13     7   ar
    32    30    24   ar
    33     1     2    1
@<TRIPOS>MOLECULE
*****
 30 33 0 0 0
SMALL
GASTEIGER

@<TRIPOS>ATOM
      1 N          64.7338   87.2663   14.5489 N.pl3   1  UNL1       -0.3039
      2 H          65.7049   87.3512   14.6871 H       1  UNL1        0.1496
      3 C          63.2573   86.0442   16.8568 C.3     1  UNL1        0.1363
      4 N          63.3741   85.2974   15.5612 N.ar    1  UNL1       -0.2669
      5 C          64.1123   85.9085   14.4072 C.ar    1  UNL1        0.2002
      6 N          64.2290   85.1617   13.1116 N.ar    1  UNL1       -0.2150
      7 C          63.6075   83.8039   12.9698 C.ar    1  UNL1        0.0895
      8 C          63.7243   83.0571   11.6742 C.ar    1  UNL1        0.0307
      9 C          63.1027   81.6994   11.5325 C.ar    1  UNL1        0.0592
     10 CL         63.2195   80.9525   10.2368 Cl      1  UNL1       -0.0822
     11 C          62.3645   81.0883   12.6865 C.ar    1  UNL1        0.0116
     12 C          62.2477   81.8351   13.9821 C.ar    1  UNL1        0.0071
     13 C          62.8693   83.1928   14.1238 C.ar    1  UNL1        0.0740
     14 C          62.7525   83.9397   15.4195 C.ar    1  UNL1        0.2643
     15 O          62.0143   83.3286   16.5734 O.2     1  UNL1       -0.2668
     16 C          63.8759   88.4948   14.4801 C.3     1  UNL1        0.0942
     17 C          64.4219   89.8171   14.9308 C.3     1  UNL1        0.0476
     18 C          64.8833   90.8226   13.9179 C.ar    1  UNL1       -0.0205
     19 C          64.0887   91.0440   12.6650 C.ar    1  UNL1       -0.0041
     20 C          64.5501   92.0495   11.6521 C.ar    1  UNL1        0.0027
     21 C          65.8061   92.8336   11.8920 C.ar    1  UNL1        0.0358
     22 C          66.6007   92.6123   13.1448 C.ar    1  UNL1        0.0027
     23 C          66.1393   91.6068   14.1578 C.ar    1  UNL1       -0.0041
     24 C          66.2675   93.8392   10.8790 C.ar    1  UNL1        0.1623
     25 N          67.4999   93.5736   10.0662 N.ar    1  UNL1       -0.2241
     26 C          67.9614   94.5791    9.0533 C.ar    1  UNL1        0.1135
     27 C          67.1904   95.8502    8.8531 C.ar    1  UNL1        0.0959
     28 CL         67.6518   96.8557    7.8402 Cl      1  UNL1       -0.0790
     29 C          65.9580   96.1157    9.6659 C.ar    1  UNL1        0.1135
     30 N          65.4966   95.1102   10.6789 N.ar    1  UNL1       -0.2241
@<TRIPOS>BOND
     1     3     4    1
     2     4     5   ar
     3     5     1    1
     4     1    16    1
     5    16    17    1
     6    17    18    1
     7    18    19   ar
     8    19    20   ar
     9    20    21   ar
    10    21    24    1
    11    24    25   ar
    12    25    26   ar
    13    26    27   ar
    14    27    28    1
    15    27    29   ar
    16    29    30   ar
    17    21    22   ar
    18    22    23   ar
    19     5     6   ar
    20     6     7   ar
    21     7     8   ar
    22     8     9   ar
    23     9    10    1
    24     9    11   ar
    25    11    12   ar
    26    12    13   ar
    27    13    14   ar
    28    14    15    2
    29    14     4   ar
    30    23    18   ar
    31    13     7   ar
    32    30    24   ar
    33     1     2    1
@<TRIPOS>MOLECULE
*****
 30 33 0 0 0
SMALL
GASTEIGER

@<TRIPOS>ATOM
      1 N          65.1414   83.9086   14.1661 N.pl3   1  UNL1       -0.3039
      2 H          66.1132   83.7520   14.1814 H       1  UNL1        0.1496
      3 C          63.1529   83.6086   16.3922 C.3     1  UNL1        0.1363
      4 N          63.5731   84.9762   15.9412 N.ar    1  UNL1       -0.2669
      5 C          64.5674   85.1262   14.8281 C.ar    1  UNL1        0.2002
      6 N          64.9876   86.4936   14.3771 N.ar    1  UNL1       -0.2150
      7 C          64.4136   87.7111   15.0391 C.ar    1  UNL1        0.0895
      8 C          64.8338   89.0785   14.5881 C.ar    1  UNL1        0.0307
      9 C          64.2598   90.2960   15.2501 C.ar    1  UNL1        0.0592
     10 CL         64.6801   91.6635   14.7991 Cl      1  UNL1       -0.0822
     11 C          63.2656   90.1460   16.3632 C.ar    1  UNL1        0.0116
     12 C          62.8453   88.7785   16.8142 C.ar    1  UNL1        0.0071
     13 C          63.4193   87.5611   16.1522 C.ar    1  UNL1        0.0740
     14 C          62.9991   86.1936   16.6032 C.ar    1  UNL1        0.2643
     15 O          62.0048   86.0436   17.7163 O.2     1  UNL1       -0.2668
     16 C          64.2347   82.9299   13.4807 C.3     1  UNL1        0.0942
     17 C          64.1943   82.8671   11.9825 C.3     1  UNL1        0.0476
     18 C          63.4001   83.8788   11.2106 C.ar    1  UNL1       -0.0205
     19 C          62.4032   84.7481   11.9182 C.ar    1  UNL1       -0.0041
     20 C          61.6090   85.7597   11.1463 C.ar    1  UNL1        0.0027
     21 C          61.8117   85.9021    9.6670 C.ar    1  UNL1        0.0358
     22 C          62.8086   85.0328    8.9594 C.ar    1  UNL1        0.0027
     23 C          63.6027   84.0212    9.7312 C.ar    1  UNL1       -0.0041
     24 C          61.0175   86.9138    8.8950 C.ar    1  UNL1        0.1623
     25 N          61.0619   88.3607    9.2882 N.ar    1  UNL1       -0.2241
     26 C          60.2677   89.3723    8.5164 C.ar    1  UNL1        0.1135
     27 C          59.4291   88.9372    7.3513 C.ar    1  UNL1        0.0959
     28 CL         58.6350   89.9489    6.5794 Cl      1  UNL1       -0.0790
     29 C          59.3847   87.4903    6.9581 C.ar    1  UNL1        0.1135
     30 N          60.1789   86.4786    7.7300 N.ar    1  UNL1       -0.2241
@<TRIPOS>BOND
     1     3     4    1
     2     4     5   ar
     3     5     1    1
     4     1    16    1
     5    16    17    1
     6    17    18    1
     7    18    19   ar
     8    19    20   ar
     9    20    21   ar
    10    21    24    1
    11    24    25   ar
    12    25    26   ar
    13    26    27   ar
    14    27    28    1
    15    27    29   ar
    16    29    30   ar
    17    21    22   ar
    18    22    23   ar
    19     5     6   ar
    20     6     7   ar
    21     7     8   ar
    22     8     9   ar
    23     9    10    1
    24     9    11   ar
    25    11    12   ar
    26    12    13   ar
    27    13    14   ar
    28    14    15    2
    29    14     4   ar
    30    23    18   ar
    31    13     7   ar
    32    30    24   ar
    33     1     2    1
@<TRIPOS>MOLECULE
*****
 30 33 0 0 0
SMALL
GASTEIGER

@<TRIPOS>ATOM
      1 N          63.0938   86.4320   12.0386 N.pl3   1  UNL1       -0.3039
      2 H          63.8865   86.9499   12.3082 H       1  UNL1        0.1496
      3 C          62.9536   85.5044   14.8882 C.3     1  UNL1        0.1363
      4 N          62.9450   84.5024   13.7719 N.ar    1  UNL1       -0.2669
      5 C          63.0151   84.9662   12.3472 C.ar    1  UNL1        0.2002
      6 N          63.0064   83.9642   11.2310 N.ar    1  UNL1       -0.2150
      7 C          62.9277   82.4983   11.5395 C.ar    1  UNL1        0.0895
      8 C          62.9190   81.4964   10.4233 C.ar    1  UNL1        0.0307
      9 C          62.8403   80.0306   10.7319 C.ar    1  UNL1        0.0592
     10 CL         62.8316   79.0285    9.6157 Cl      1  UNL1       -0.0822
     11 C          62.7702   79.5668   12.1567 C.ar    1  UNL1        0.0116
     12 C          62.7788   80.5688   13.2729 C.ar    1  UNL1        0.0071
     13 C          62.8576   82.0345   12.9643 C.ar    1  UNL1        0.0740
     14 C          62.8662   83.0366   14.0805 C.ar    1  UNL1        0.2643
     15 O          62.7962   82.5728   15.5053 O.2     1  UNL1       -0.2668
     16 C          61.9648   87.1088   11.3194 C.3     1  UNL1        0.0942
     17 C          61.8925   88.6064   11.2781 C.3     1  UNL1        0.0476
     18 C          62.9336   89.4273   11.9798 C.ar    1  UNL1       -0.0205
     19 C          63.3999   90.7201   11.3788 C.ar    1  UNL1       -0.0041
     20 C          64.4410   91.5409   12.0804 C.ar    1  UNL1        0.0027
     21 C          65.0158   91.0689   13.3830 C.ar    1  UNL1        0.0358
     22 C          64.5495   89.7761   13.9839 C.ar    1  UNL1        0.0027
     23 C          63.5084   88.9553   13.2823 C.ar    1  UNL1       -0.0041
     24 C          66.0570   91.8898   14.0847 C.ar    1  UNL1        0.1623
     25 N          67.0516   91.2251   14.9897 N.ar    1  UNL1       -0.2241
     26 C          68.0927   92.0459   15.6914 C.ar    1  UNL1        0.1135
     27 C          68.1393   93.5314   15.4880 C.ar    1  UNL1        0.0959
     28 CL         69.1804   94.3521   16.1897 Cl      1  UNL1       -0.0790
     29 C          67.1447   94.1960   14.5830 C.ar    1  UNL1        0.1135
     30 N          66.1035   93.3752   13.8813 N.ar    1  UNL1       -0.2241
@<TRIPOS>BOND
     1     3     4    1
     2     4     5   ar
     3     5     1    1
     4     1    16    1
     5    16    17    1
     6    17    18    1
     7    18    19   ar
     8    19    20   ar
     9    20    21   ar
    10    21    24    1
    11    24    25   ar
    12    25    26   ar
    13    26    27   ar
    14    27    28    1
    15    27    29   ar
    16    29    30   ar
    17    21    22   ar
    18    22    23   ar
    19     5     6   ar
    20     6     7   ar
    21     7     8   ar
    22     8     9   ar
    23     9    10    1
    24     9    11   ar
    25    11    12   ar
    26    12    13   ar
    27    13    14   ar
    28    14    15    2
    29    14     4   ar
    30    23    18   ar
    31    13     7   ar
    32    30    24   ar
    33     1     2    1
@<TRIPOS>MOLECULE
*****
 30 33 0 0 0
SMALL
GASTEIGER

@<TRIPOS>ATOM
      1 N          58.9635   89.1881    7.1912 N.pl3   1  UNL1       -0.3039
      2 H          57.9913   89.0905    7.3122 H       1  UNL1        0.1496
      3 C          59.4817   86.3058    7.8424 C.3     1  UNL1        0.1363
      4 N          60.1573   87.3866    8.6334 N.ar    1  UNL1       -0.2669
      5 C          59.8982   88.8277    8.3078 C.ar    1  UNL1        0.2002
      6 N          60.5737   89.9085    9.0987 N.ar    1  UNL1       -0.2150
      7 C          61.5084   89.5482   10.2152 C.ar    1  UNL1        0.0895
      8 C          62.1839   90.6290   11.0061 C.ar    1  UNL1        0.0307
      9 C          63.1186   90.2686   12.1225 C.ar    1  UNL1        0.0592
     10 CL         63.7942   91.3494   12.9135 Cl      1  UNL1       -0.0822
     11 C          63.3777   88.8275   12.4481 C.ar    1  UNL1        0.0116
     12 C          62.7022   87.7467   11.6573 C.ar    1  UNL1        0.0071
     13 C          61.7675   88.1071   10.5408 C.ar    1  UNL1        0.0740
     14 C          61.0919   87.0263    9.7498 C.ar    1  UNL1        0.2643
     15 O          61.3511   85.5851   10.0754 O.2     1  UNL1       -0.2668
     16 C          59.5100   89.6970    5.8904 C.3     1  UNL1        0.0942
     17 C          59.2400   91.1098    5.4650 C.3     1  UNL1        0.0476
     18 C          60.0319   91.7209    4.3471 C.ar    1  UNL1       -0.0205
     19 C          59.3703   92.6666    3.3890 C.ar    1  UNL1       -0.0041
     20 C          60.1622   93.2777    2.2712 C.ar    1  UNL1        0.0027
     21 C          61.6156   92.9430    2.1115 C.ar    1  UNL1        0.0358
     22 C          62.2771   91.9973    3.0696 C.ar    1  UNL1        0.0027
     23 C          61.4853   91.3863    4.1874 C.ar    1  UNL1       -0.0041
     24 C          62.4075   93.5541    0.9936 C.ar    1  UNL1        0.1623
     25 N          61.9868   93.3366   -0.4297 N.ar    1  UNL1       -0.2241
     26 C          62.7787   93.9476   -1.5475 C.ar    1  UNL1        0.1135
     27 C          63.9913   94.7761   -1.2421 C.ar    1  UNL1        0.0959
     28 CL         64.7831   95.3872   -2.3599 Cl      1  UNL1       -0.0790
     29 C          64.4119   94.9937    0.1812 C.ar    1  UNL1        0.1135
     30 N          63.6200   94.3826    1.2991 N.ar    1  UNL1       -0.2241
@<TRIPOS>BOND
     1     3     4    1
     2     4     5   ar
     3     5     1    1
     4     1    16    1
     5    16    17    1
     6    17    18    1
     7    18    19   ar
     8    19    20   ar
     9    20    21   ar
    10    21    24    1
    11    24    25   ar
    12    25    26   ar
    13    26    27   ar
    14    27    28    1
    15    27    29   ar
    16    29    30   ar
    17    21    22   ar
    18    22    23   ar
    19     5     6   ar
    20     6     7   ar
    21     7     8   ar
    22     8     9   ar
    23     9    10    1
    24     9    11   ar
    25    11    12   ar
    26    12    13   ar
    27    13    14   ar
    28    14    15    2
    29    14     4   ar
    30    23    18   ar
    31    13     7   ar
    32    30    24   ar
    33     1     2    1
@<TRIPOS>MOLECULE
*****
 30 33 0 0 0
SMALL
GASTEIGER

@<TRIPOS>ATOM
      1 N          60.5084   90.8182    5.7254 N.pl3   1  UNL1       -0.3039
      2 H          61.0133   91.0218    6.5457 H       1  UNL1        0.1496
      3 C          58.3087   92.1136    4.1495 C.3     1  UNL1        0.1363
      4 N          59.7254   92.1899    3.6625 N.ar    1  UNL1       -0.2669
      5 C          60.8253   91.5422    4.4504 C.ar    1  UNL1        0.2002
      6 N          62.2419   91.6186    3.9635 N.ar    1  UNL1       -0.2150
      7 C          62.5588   92.3426    2.6885 C.ar    1  UNL1        0.0895
      8 C          63.9755   92.4189    2.2015 C.ar    1  UNL1        0.0307
      9 C          64.2923   93.1428    0.9266 C.ar    1  UNL1        0.0592
     10 CL         65.7091   93.2192    0.4396 Cl      1  UNL1       -0.0822
     11 C          63.1925   93.7905    0.1387 C.ar    1  UNL1        0.0116
     12 C          61.7758   93.7142    0.6257 C.ar    1  UNL1        0.0071
     13 C          61.4590   92.9902    1.9006 C.ar    1  UNL1        0.0740
     14 C          60.0423   92.9139    2.3876 C.ar    1  UNL1        0.2643
     15 O          58.9424   93.5616    1.5997 O.2     1  UNL1       -0.2668
     16 C          59.4222   89.7841    5.7506 C.3     1  UNL1        0.0942
     17 C          58.8716   89.3066    7.0616 C.3     1  UNL1        0.0476
     18 C          59.6787   88.3790    7.9209 C.ar    1  UNL1       -0.0205
     19 C          59.6494   86.9017    7.6628 C.ar    1  UNL1       -0.0041
     20 C          60.4565   85.9741    8.5220 C.ar    1  UNL1        0.0027
     21 C          61.2927   86.5239    9.6393 C.ar    1  UNL1        0.0358
     22 C          61.3219   88.0012    9.8974 C.ar    1  UNL1        0.0027
     23 C          60.5149   88.9288    9.0382 C.ar    1  UNL1       -0.0041
     24 C          62.0997   85.5963   10.4986 C.ar    1  UNL1        0.1623
     25 N          62.9981   84.5767    9.8635 N.ar    1  UNL1       -0.2241
     26 C          63.8051   83.6492   10.7227 C.ar    1  UNL1        0.1135
     27 C          63.7139   83.7412   12.2172 C.ar    1  UNL1        0.0959
     28 CL         64.5209   82.8137   13.0764 Cl      1  UNL1       -0.0790
     29 C          62.8155   84.7608   12.8523 C.ar    1  UNL1        0.1135
     30 N          62.0085   85.6884   11.9930 N.ar    1  UNL1       -0.2241
@<TRIPOS>BOND
     1     3     4    1
     2     4     5   ar
     3     5     1    1
     4     1    16    1
     5    16    17    1
     6    17    18    1
     7    18    19   ar
     8    19    20   ar
     9    20    21   ar
    10    21    24    1
    11    24    25   ar
    12    25    26   ar
    13    26    27   ar
    14    27    28    1
    15    27    29   ar
    16    29    30   ar
    17    21    22   ar
    18    22    23   ar
    19     5     6   ar
    20     6     7   ar
    21     7     8   ar
    22     8     9   ar
    23     9    10    1
    24     9    11   ar
    25    11    12   ar
    26    12    13   ar
    27    13    14   ar
    28    14    15    2
    29    14     4   ar
    30    23    18   ar
    31    13     7   ar
    32    30    24   ar
    33     1     2    1
