@<TRIPOS>MOLECULE
*****
 33 37 0 0 0
SMALL
GASTEIGER

@<TRIPOS>ATOM
      1 C          63.3858   88.6304   10.0217 C.3     1  UNL1        0.0389
      2 C          62.0800   88.9209   10.7003 C.ar    1  UNL1        0.0629
      3 C          61.7964   90.2980   11.2229 C.ar    1  UNL1        0.1344
      4 N          60.4906   90.5886   11.9015 N.ar    1  UNL1       -0.2091
      5 C          59.4684   89.5019   12.0575 C.ar    1  UNL1        0.2027
      6 N          59.7520   88.1249   11.5349 N.ar    1  UNL1       -0.1895
      7 C          61.0578   87.8344   10.8563 C.ar    1  UNL1        0.2247
      8 N          62.8186   91.3847   11.0669 N.pl3   1  UNL1       -0.2974
      9 H          62.7589   92.0117   10.3102 H       1  UNL1        0.1536
     10 C          63.9318   91.5160   12.0637 C.ar    1  UNL1        0.0601
     11 C          63.8437   90.8091   13.3837 C.ar    1  UNL1        0.0162
     12 C          64.9569   90.9404   14.3805 C.ar    1  UNL1        0.0116
     13 C          66.1581   91.7786   14.0572 C.ar    1  UNL1        0.0694
     14 C          66.2462   92.4854   12.7371 C.ar    1  UNL1        0.0229
     15 C          65.1331   92.3541   11.7403 C.ar    1  UNL1        0.0717
     16 CL         65.2212   93.0610   10.4203 Cl      1  UNL1       -0.0809
     17 C          67.2713   91.9099   15.0540 C.1     1  UNL1        0.1004
     18 N          68.3845   92.0412   16.0508 N.1     1  UNL1       -0.1908
     19 O          61.3414   86.4572   10.3338 O.3     1  UNL1       -0.4640
     20 C          62.1700   85.5039   11.1429 C.3     1  UNL1        0.1703
     21 C          62.1816   84.0435   10.8009 C.3     1  UNL1        0.0613
     22 C          63.0102   83.0902   11.6100 C.3     1  UNL1        0.0828
     23 C          63.9419   82.5346   12.6459 C.3     1  UNL1        0.0193
     24 C          64.4070   83.6706   13.5080 C.3     1  UNL1        0.0193
     25 C          63.7626   84.9283   13.0049 C.3     1  UNL1        0.0828
     26 C          62.9871   86.0110   12.2941 C.3     1  UNL1        0.0613
     27 N          62.8993   84.5696   11.8319 N.3     1  UNL1       -0.1620
     28 S          62.0707   85.5228   11.0227 S.O2    1  UNL1        0.0420
     29 O          62.9073   85.2241    9.8141 O.2     1  UNL1       -0.1573
     30 O          61.2341   85.8216   12.2314 O.2     1  UNL1       -0.1573
     31 C          61.2421   86.4761   10.2136 C.3     1  UNL1        0.1459
     32 C          61.1264   87.4740    9.0997 C.3     1  UNL1        0.0270
     33 C          59.9228   87.1291    9.9259 C.3     1  UNL1        0.0270
@<TRIPOS>BOND
     1     1     2    1
     2     2     3   ar
     3     3     8    1
     4     8    10    1
     5    10    11   ar
     6    11    12   ar
     7    12    13   ar
     8    13    17    1
     9    17    18    3
    10    13    14   ar
    11    14    15   ar
    12    15    16    1
    13     3     4   ar
    14     4     5   ar
    15     5     6   ar
    16     6     7   ar
    17     7    19    1
    18    20    19    1
    19    20    21    1
    20    22    21    1
    21    22    23    1
    22    23    24    1
    23    25    24    1
    24    25    26    1
    25    25    27    1
    26    27    28    1
    27    28    29    2
    28    28    30    2
    29    28    31    1
    30    31    32    1
    31    32    33    1
    32     7     2   ar
    33    26    20    1
    34    33    31    1
    35    15    10   ar
    36    27    22    1
    37     8     9    1
@<TRIPOS>MOLECULE
*****
 33 37 0 0 0
SMALL
GASTEIGER

@<TRIPOS>ATOM
      1 C          61.5522   90.1068    9.8994 C.3     1  UNL1        0.0389
      2 C          62.1883   89.2400   10.9454 C.ar    1  UNL1        0.0629
      3 C          63.2278   89.8123   11.8630 C.ar    1  UNL1        0.1344
      4 N          63.8639   88.9456   12.9090 N.ar    1  UNL1       -0.2091
      5 C          63.4605   87.5066   13.0374 C.ar    1  UNL1        0.2027
      6 N          62.4210   86.9343   12.1199 N.ar    1  UNL1       -0.1895
      7 C          61.7850   87.8011   11.0739 C.ar    1  UNL1        0.2247
      8 N          63.6312   91.2513   11.7346 N.pl3   1  UNL1       -0.2974
      9 H          63.1979   91.8260   11.0628 H       1  UNL1        0.1536
     10 C          64.6949   91.8148   12.6297 C.ar    1  UNL1        0.0601
     11 C          64.8444   91.3024   14.0314 C.ar    1  UNL1        0.0162
     12 C          65.9081   91.8659   14.9265 C.ar    1  UNL1        0.0116
     13 C          66.8221   92.9418   14.4197 C.ar    1  UNL1        0.0694
     14 C          66.6726   93.4543   13.0179 C.ar    1  UNL1        0.0229
     15 C          65.6090   92.8908   12.1229 C.ar    1  UNL1        0.0717
     16 CL         65.4595   93.4032   10.7211 Cl      1  UNL1       -0.0809
     17 C          67.8858   93.5054   15.3148 C.1     1  UNL1        0.1004
     18 N          68.9494   94.0689   16.2099 N.1     1  UNL1       -0.1908
     19 O          60.7454   87.2288   10.1563 O.3     1  UNL1       -0.4640
     20 C          61.1608   86.4048    8.9736 C.3     1  UNL1        0.1703
     21 C          60.1284   85.9110    8.0039 C.3     1  UNL1        0.0613
     22 C          60.5438   85.0871    6.8212 C.3     1  UNL1        0.0828
     23 C          61.3812   84.3327    5.8315 C.3     1  UNL1        0.0193
     24 C          62.8131   84.4273    6.2685 C.3     1  UNL1        0.0193
     25 C          62.8605   85.2401    7.5283 C.3     1  UNL1        0.0828
     26 C          62.6084   86.0748    8.7607 C.3     1  UNL1        0.0613
     27 N          61.4580   85.6479    7.8699 N.3     1  UNL1       -0.1620
     28 S          61.0427   86.4718    9.0525 S.O2    1  UNL1        0.0420
     29 O          61.3096   85.3063    9.9582 O.2     1  UNL1       -0.1573
     30 O          60.7758   87.6373    8.1468 O.2     1  UNL1       -0.1573
     31 C          60.6273   87.2957   10.2352 C.3     1  UNL1        0.1459
     32 C          60.4720   87.4527   11.7188 C.3     1  UNL1        0.0270
     33 C          60.0632   88.5657   10.7999 C.3     1  UNL1        0.0270
@<TRIPOS>BOND
     1     1     2    1
     2     2     3   ar
     3     3     8    1
     4     8    10    1
     5    10    11   ar
     6    11    12   ar
     7    12    13   ar
     8    13    17    1
     9    17    18    3
    10    13    14   ar
    11    14    15   ar
    12    15    16    1
    13     3     4   ar
    14     4     5   ar
    15     5     6   ar
    16     6     7   ar
    17     7    19    1
    18    20    19    1
    19    20    21    1
    20    22    21    1
    21    22    23    1
    22    23    24    1
    23    25    24    1
    24    25    26    1
    25    25    27    1
    26    27    28    1
    27    28    29    2
    28    28    30    2
    29    28    31    1
    30    31    32    1
    31    32    33    1
    32     7     2   ar
    33    26    20    1
    34    33    31    1
    35    15    10   ar
    36    27    22    1
    37     8     9    1
@<TRIPOS>MOLECULE
*****
 33 37 0 0 0
SMALL
GASTEIGER

@<TRIPOS>ATOM
      1 C          62.5476   90.7183    9.5994 C.3     1  UNL1        0.0389
      2 C          62.3957   90.3591   11.0478 C.ar    1  UNL1        0.0629
      3 C          63.3829   90.8705   12.0548 C.ar    1  UNL1        0.1344
      4 N          63.2310   90.5113   13.5032 N.ar    1  UNL1       -0.2091
      5 C          62.0919   89.6408   13.9446 C.ar    1  UNL1        0.2027
      6 N          61.1049   89.1295   12.9376 N.ar    1  UNL1       -0.1895
      7 C          61.2568   89.4887   11.4892 C.ar    1  UNL1        0.2247
      8 N          64.5219   91.7410   11.6134 N.pl3   1  UNL1       -0.2974
      9 H          64.6257   91.9709   10.6618 H       1  UNL1        0.1536
     10 C          65.5029   92.2611   12.6220 C.ar    1  UNL1        0.0601
     11 C          65.9235   91.3973   13.7739 C.ar    1  UNL1        0.0162
     12 C          66.9044   91.9175   14.7825 C.ar    1  UNL1        0.0116
     13 C          67.4648   93.3015   14.6390 C.ar    1  UNL1        0.0694
     14 C          67.0442   94.1653   13.4870 C.ar    1  UNL1        0.0229
     15 C          66.0633   93.6452   12.4786 C.ar    1  UNL1        0.0717
     16 CL         65.6427   94.5090   11.3266 Cl      1  UNL1       -0.0809
     17 C          68.4457   93.8217   15.6475 C.1     1  UNL1        0.1004
     18 N          69.4267   94.3419   16.6560 N.1     1  UNL1       -0.1908
     19 O          60.2696   88.9773   10.4822 O.3     1  UNL1       -0.4640
     20 C          60.6449   87.8458    9.5717 C.3     1  UNL1        0.1703
     21 C          59.6134   87.2347    8.6702 C.3     1  UNL1        0.0613
     22 C          59.9888   86.1033    7.7598 C.3     1  UNL1        0.0828
     23 C          60.7807   85.0433    7.0531 C.3     1  UNL1        0.0193
     24 C          62.1885   85.0957    7.5684 C.3     1  UNL1        0.0193
     25 C          62.2666   86.1880    8.5935 C.3     1  UNL1        0.0828
     26 C          62.0517   87.3254    9.5627 C.3     1  UNL1        0.0613
     27 N          60.9071   86.8107    8.7118 N.3     1  UNL1       -0.1620
     28 S          60.5317   87.9422    9.6222 S.O2    1  UNL1        0.0420
     29 O          60.4663   88.8684    8.4442 O.2     1  UNL1       -0.1573
     30 O          60.5971   87.0159   10.8003 O.2     1  UNL1       -0.1573
     31 C          60.1564   89.0736   10.5327 C.3     1  UNL1        0.1459
     32 C          60.0449   90.5459   10.7971 C.3     1  UNL1        0.0270
     33 C          59.6178   89.5611   11.8450 C.3     1  UNL1        0.0270
@<TRIPOS>BOND
     1     1     2    1
     2     2     3   ar
     3     3     8    1
     4     8    10    1
     5    10    11   ar
     6    11    12   ar
     7    12    13   ar
     8    13    17    1
     9    17    18    3
    10    13    14   ar
    11    14    15   ar
    12    15    16    1
    13     3     4   ar
    14     4     5   ar
    15     5     6   ar
    16     6     7   ar
    17     7    19    1
    18    20    19    1
    19    20    21    1
    20    22    21    1
    21    22    23    1
    22    23    24    1
    23    25    24    1
    24    25    26    1
    25    25    27    1
    26    27    28    1
    27    28    29    2
    28    28    30    2
    29    28    31    1
    30    31    32    1
    31    32    33    1
    32     7     2   ar
    33    26    20    1
    34    33    31    1
    35    15    10   ar
    36    27    22    1
    37     8     9    1
@<TRIPOS>MOLECULE
*****
 33 37 0 0 0
SMALL
GASTEIGER

@<TRIPOS>ATOM
      1 C          63.2804   87.2985   11.8742 C.3     1  UNL1        0.0389
      2 C          62.0821   87.2583   10.9728 C.ar    1  UNL1        0.0629
      3 C          61.0874   88.3808   10.9970 C.ar    1  UNL1        0.1344
      4 N          59.8891   88.3407   10.0957 N.ar    1  UNL1       -0.2091
      5 C          59.6855   87.1780    9.1702 C.ar    1  UNL1        0.2027
      6 N          60.6801   86.0555    9.1459 N.ar    1  UNL1       -0.1895
      7 C          61.8784   86.0957   10.0473 C.ar    1  UNL1        0.2247
      8 N          61.2911   89.5435   11.9226 N.pl3   1  UNL1       -0.2974
      9 H          60.6461   89.7154   12.6463 H       1  UNL1        0.1536
     10 C          62.4773   90.4443   11.7455 C.ar    1  UNL1        0.0601
     11 C          62.7683   91.0461   10.4027 C.ar    1  UNL1        0.0162
     12 C          63.9546   91.9469   10.2256 C.ar    1  UNL1        0.0116
     13 C          64.8498   92.2459   11.3915 C.ar    1  UNL1        0.0694
     14 C          64.5588   91.6442   12.7343 C.ar    1  UNL1        0.0229
     15 C          63.3726   90.7434   12.9114 C.ar    1  UNL1        0.0717
     16 CL         63.0816   90.1417   14.2542 Cl      1  UNL1       -0.0809
     17 C          66.0361   93.1467   11.2144 C.1     1  UNL1        0.1004
     18 N          67.2223   94.0475   11.0374 N.1     1  UNL1       -0.1908
     19 O          62.8731   84.9731   10.0231 O.3     1  UNL1       -0.4640
     20 C          62.9641   84.0265   11.1832 C.3     1  UNL1        0.1703
     21 C          62.7975   82.5521   10.9629 C.3     1  UNL1        0.0613
     22 C          62.8885   81.6056   12.1230 C.3     1  UNL1        0.0828
     23 C          63.0506   81.0625   13.5118 C.3     1  UNL1        0.0193
     24 C          63.2954   82.2184   14.4358 C.3     1  UNL1        0.0193
     25 C          63.2846   83.4759   13.6181 C.3     1  UNL1        0.0828
     26 C          63.2216   84.5543   12.5634 C.3     1  UNL1        0.0613
     27 N          63.0331   83.0971   12.1887 N.3     1  UNL1       -0.1620
     28 S          62.9421   84.0437   11.0286 S.O2    1  UNL1        0.0420
     29 O          61.5600   84.4375   11.4583 O.2     1  UNL1       -0.1573
     30 O          64.3243   83.6499   10.5989 O.2     1  UNL1       -0.1573
     31 C          62.8512   84.9903    9.8686 C.3     1  UNL1        0.1459
     32 C          63.2236   86.2911    9.2212 C.3     1  UNL1        0.0270
     33 C          62.3213   85.3290    8.5068 C.3     1  UNL1        0.0270
@<TRIPOS>BOND
     1     1     2    1
     2     2     3   ar
     3     3     8    1
     4     8    10    1
     5    10    11   ar
     6    11    12   ar
     7    12    13   ar
     8    13    17    1
     9    17    18    3
    10    13    14   ar
    11    14    15   ar
    12    15    16    1
    13     3     4   ar
    14     4     5   ar
    15     5     6   ar
    16     6     7   ar
    17     7    19    1
    18    20    19    1
    19    20    21    1
    20    22    21    1
    21    22    23    1
    22    23    24    1
    23    25    24    1
    24    25    26    1
    25    25    27    1
    26    27    28    1
    27    28    29    2
    28    28    30    2
    29    28    31    1
    30    31    32    1
    31    32    33    1
    32     7     2   ar
    33    26    20    1
    34    33    31    1
    35    15    10   ar
    36    27    22    1
    37     8     9    1
@<TRIPOS>MOLECULE
*****
 33 37 0 0 0
SMALL
GASTEIGER

@<TRIPOS>ATOM
      1 C          64.9109   91.3736   11.2609 C.3     1  UNL1        0.0389
      2 C          65.3519   91.8920   12.5976 C.ar    1  UNL1        0.0629
      3 C          64.5869   91.5240   13.8343 C.ar    1  UNL1        0.1344
      4 N          65.0279   92.0423   15.1710 N.ar    1  UNL1       -0.2091
      5 C          66.2339   92.9286   15.2710 C.ar    1  UNL1        0.2027
      6 N          66.9989   93.2966   14.0344 N.ar    1  UNL1       -0.1895
      7 C          66.5579   92.7782   12.6977 C.ar    1  UNL1        0.2247
      8 N          63.3809   90.6377   13.7343 N.pl3   1  UNL1       -0.2974
      9 H          62.4808   91.0342   13.6922 H       1  UNL1        0.1536
     10 C          63.5464   89.1472   13.6984 C.ar    1  UNL1        0.0601
     11 C          64.2230   88.4401   14.8351 C.ar    1  UNL1        0.0162
     12 C          64.3885   86.9497   14.7992 C.ar    1  UNL1        0.0116
     13 C          63.8772   86.1665   13.6265 C.ar    1  UNL1        0.0694
     14 C          63.2006   86.8736   12.4898 C.ar    1  UNL1        0.0229
     15 C          63.0352   88.3639   12.5257 C.ar    1  UNL1        0.0717
     16 CL         62.3585   89.0710   11.3890 Cl      1  UNL1       -0.0809
     17 C          64.0427   84.6760   13.5906 C.1     1  UNL1        0.1004
     18 N          64.2082   83.1856   13.5547 N.1     1  UNL1       -0.1908
     19 O          67.3229   93.1462   11.4610 O.3     1  UNL1       -0.4640
     20 C          66.7959   94.2075   10.5411 C.3     1  UNL1        0.1703
     21 C          67.6176   94.6616    9.3713 C.3     1  UNL1        0.0613
     22 C          67.0906   95.7228    8.4515 C.3     1  UNL1        0.0828
     23 C          66.2023   96.7594    7.8299 C.3     1  UNL1        0.0193
     24 C          64.9492   96.8477    8.6497 C.3     1  UNL1        0.0193
     25 C          65.0631   95.8657    9.7779 C.3     1  UNL1        0.0828
     26 C          65.4472   94.8146   10.7911 C.3     1  UNL1        0.0613
     27 N          66.3866   95.1705    9.6553 N.3     1  UNL1       -0.1620
     28 S          66.9136   94.1093   10.5752 S.O2    1  UNL1        0.0420
     29 O          66.7304   93.0833    9.4964 O.2     1  UNL1       -0.1573
     30 O          67.0968   95.1353   11.6539 O.2     1  UNL1       -0.1573
     31 C          67.4406   93.0481   11.4950 C.3     1  UNL1        0.1459
     32 C          67.9771   92.6398   12.8350 C.3     1  UNL1        0.0270
     33 C          67.8169   91.6183   11.7482 C.3     1  UNL1        0.0270
@<TRIPOS>BOND
     1     1     2    1
     2     2     3   ar
     3     3     8    1
     4     8    10    1
     5    10    11   ar
     6    11    12   ar
     7    12    13   ar
     8    13    17    1
     9    17    18    3
    10    13    14   ar
    11    14    15   ar
    12    15    16    1
    13     3     4   ar
    14     4     5   ar
    15     5     6   ar
    16     6     7   ar
    17     7    19    1
    18    20    19    1
    19    20    21    1
    20    22    21    1
    21    22    23    1
    22    23    24    1
    23    25    24    1
    24    25    26    1
    25    25    27    1
    26    27    28    1
    27    28    29    2
    28    28    30    2
    29    28    31    1
    30    31    32    1
    31    32    33    1
    32     7     2   ar
    33    26    20    1
    34    33    31    1
    35    15    10   ar
    36    27    22    1
    37     8     9    1
@<TRIPOS>MOLECULE
*****
 33 37 0 0 0
SMALL
GASTEIGER

@<TRIPOS>ATOM
      1 C          59.3379   90.1989    9.5801 C.3     1  UNL1        0.0389
      2 C          59.9260   88.9061    9.0978 C.ar    1  UNL1        0.0629
      3 C          59.5169   88.3459    7.7678 C.ar    1  UNL1        0.1344
      4 N          60.1049   87.0531    7.2855 N.ar    1  UNL1       -0.2091
      5 C          61.1021   86.3203    8.1333 C.ar    1  UNL1        0.2027
      6 N          61.5112   86.8804    9.4632 N.ar    1  UNL1       -0.1895
      7 C          60.9231   88.1733    9.9455 C.ar    1  UNL1        0.2247
      8 N          58.5197   89.0787    6.9200 N.pl3   1  UNL1       -0.2974
      9 H          57.5586   88.8870    7.0139 H       1  UNL1        0.1536
     10 C          58.9868   90.1036    5.9293 C.ar    1  UNL1        0.0601
     11 C          60.4539   90.2913    5.6797 C.ar    1  UNL1        0.0162
     12 C          60.9211   91.3162    4.6890 C.ar    1  UNL1        0.0116
     13 C          59.9210   92.1532    3.9480 C.ar    1  UNL1        0.0694
     14 C          58.4539   91.9655    4.1976 C.ar    1  UNL1        0.0229
     15 C          57.9868   90.9407    5.1882 C.ar    1  UNL1        0.0717
     16 CL         56.5197   90.7530    5.4378 Cl      1  UNL1       -0.0809
     17 C          60.3881   93.1781    2.9573 C.1     1  UNL1        0.1004
     18 N          60.8553   94.2029    1.9666 N.1     1  UNL1       -0.1908
     19 O          61.3322   88.7334   11.2755 O.3     1  UNL1       -0.4640
     20 C          62.4024   89.7818   11.3507 C.3     1  UNL1        0.1703
     21 C          63.0521   90.0975   12.6653 C.3     1  UNL1        0.0613
     22 C          64.1223   91.1459   12.7404 C.3     1  UNL1        0.0828
     23 C          65.0992   92.2173   12.3562 C.3     1  UNL1        0.0193
     24 C          64.9668   92.4581   10.8816 C.3     1  UNL1        0.0193
     25 C          63.9081   91.5354   10.3544 C.3     1  UNL1        0.0828
     26 C          62.8229   90.5145   10.1112 C.3     1  UNL1        0.0613
     27 N          63.3861   90.7244   11.5032 N.3     1  UNL1       -0.1620
     28 S          62.3160   89.6760   11.4281 S.O2    1  UNL1        0.0420
     29 O          63.3665   88.6125   11.3050 O.2     1  UNL1       -0.1573
     30 O          61.2654   90.7396   11.5512 O.2     1  UNL1       -0.1573
     31 C          61.2458   88.6276   11.3530 C.3     1  UNL1        0.1459
     32 C          60.8444   87.1881   11.2243 C.3     1  UNL1        0.0270
     33 C          59.7938   88.2513   11.3517 C.3     1  UNL1        0.0270
@<TRIPOS>BOND
     1     1     2    1
     2     2     3   ar
     3     3     8    1
     4     8    10    1
     5    10    11   ar
     6    11    12   ar
     7    12    13   ar
     8    13    17    1
     9    17    18    3
    10    13    14   ar
    11    14    15   ar
    12    15    16    1
    13     3     4   ar
    14     4     5   ar
    15     5     6   ar
    16     6     7   ar
    17     7    19    1
    18    20    19    1
    19    20    21    1
    20    22    21    1
    21    22    23    1
    22    23    24    1
    23    25    24    1
    24    25    26    1
    25    25    27    1
    26    27    28    1
    27    28    29    2
    28    28    30    2
    29    28    31    1
    30    31    32    1
    31    32    33    1
    32     7     2   ar
    33    26    20    1
    34    33    31    1
    35    15    10   ar
    36    27    22    1
    37     8     9    1
@<TRIPOS>MOLECULE
*****
 33 37 0 0 0
SMALL
GASTEIGER

@<TRIPOS>ATOM
      1 C          64.7679   91.6231   10.9159 C.3     1  UNL1        0.0389
      2 C          65.2662   91.9704   12.2874 C.ar    1  UNL1        0.0629
      3 C          64.4525   91.6093   13.4947 C.ar    1  UNL1        0.1344
      4 N          64.9507   91.9565   14.8662 N.ar    1  UNL1       -0.2091
      5 C          66.2627   92.6648   15.0305 C.ar    1  UNL1        0.2027
      6 N          67.0764   93.0259   13.8233 N.ar    1  UNL1       -0.1895
      7 C          66.5781   92.6787   12.4517 C.ar    1  UNL1        0.2247
      8 N          63.1405   90.9009   13.3304 N.pl3   1  UNL1       -0.2974
      9 H          62.2967   91.3956   13.4421 H       1  UNL1        0.1536
     10 C          63.1142   89.4389   12.9961 C.ar    1  UNL1        0.0601
     11 C          63.8514   88.4587   13.8597 C.ar    1  UNL1        0.0162
     12 C          63.8251   86.9966   13.5253 C.ar    1  UNL1        0.0116
     13 C          63.0616   86.5149   12.3274 C.ar    1  UNL1        0.0694
     14 C          62.3244   87.4951   11.4639 C.ar    1  UNL1        0.0229
     15 C          62.3507   88.9570   11.7982 C.ar    1  UNL1        0.0717
     16 CL         61.6134   89.9372   10.9347 Cl      1  UNL1       -0.0809
     17 C          63.0353   85.0528   11.9931 C.1     1  UNL1        0.1004
     18 N          63.0090   83.5908   11.6588 N.1     1  UNL1       -0.1908
     19 O          67.3918   93.0398   11.2445 O.3     1  UNL1       -0.4640
     20 C          66.9373   94.1439   10.3365 C.3     1  UNL1        0.1703
     21 C          67.8732   94.6994    9.3043 C.3     1  UNL1        0.0613
     22 C          67.4186   95.8034    8.3964 C.3     1  UNL1        0.0828
     23 C          66.5713   96.8523    7.7392 C.3     1  UNL1        0.0193
     24 C          65.2281   96.8483    8.4069 C.3     1  UNL1        0.0193
     25 C          65.2453   95.7971    9.4767 C.3     1  UNL1        0.0828
     26 C          65.5467   94.6926   10.4608 C.3     1  UNL1        0.0613
     27 N          66.5991   95.1513    9.4702 N.3     1  UNL1       -0.1620
     28 S          67.0537   94.0472   10.3781 S.O2    1  UNL1        0.0420
     29 O          66.8782   94.9496   11.5634 O.2     1  UNL1       -0.1573
     30 O          67.2292   93.1448    9.1929 O.2     1  UNL1       -0.1573
     31 C          67.5083   92.9431   11.2861 C.3     1  UNL1        0.1459
     32 C          68.3503   92.4682   12.4330 C.3     1  UNL1        0.0270
     33 C          67.4538   91.5058   11.7117 C.3     1  UNL1        0.0270
@<TRIPOS>BOND
     1     1     2    1
     2     2     3   ar
     3     3     8    1
     4     8    10    1
     5    10    11   ar
     6    11    12   ar
     7    12    13   ar
     8    13    17    1
     9    17    18    3
    10    13    14   ar
    11    14    15   ar
    12    15    16    1
    13     3     4   ar
    14     4     5   ar
    15     5     6   ar
    16     6     7   ar
    17     7    19    1
    18    20    19    1
    19    20    21    1
    20    22    21    1
    21    22    23    1
    22    23    24    1
    23    25    24    1
    24    25    26    1
    25    25    27    1
    26    27    28    1
    27    28    29    2
    28    28    30    2
    29    28    31    1
    30    31    32    1
    31    32    33    1
    32     7     2   ar
    33    26    20    1
    34    33    31    1
    35    15    10   ar
    36    27    22    1
    37     8     9    1
@<TRIPOS>MOLECULE
*****
 33 37 0 0 0
SMALL
GASTEIGER

@<TRIPOS>ATOM
      1 C          62.3256   88.2820   12.9800 C.3     1  UNL1        0.0389
      2 C          62.6939   89.4685   12.1394 C.ar    1  UNL1        0.0629
      3 C          63.8405   90.3471   12.5436 C.ar    1  UNL1        0.1344
      4 N          64.2088   91.5336   11.7030 N.ar    1  UNL1       -0.2091
      5 C          63.4306   91.8414   10.4581 C.ar    1  UNL1        0.2027
      6 N          62.2841   90.9628   10.0540 N.ar    1  UNL1       -0.1895
      7 C          61.9158   89.7763   10.8946 C.ar    1  UNL1        0.2247
      8 N          64.6188   90.0394   13.7884 N.pl3   1  UNL1       -0.2974
      9 H          64.4747   89.1878   14.2610 H       1  UNL1        0.1536
     10 C          65.6165   91.0290   14.3131 C.ar    1  UNL1        0.0601
     11 C          66.8879   91.2838   13.5591 C.ar    1  UNL1        0.0162
     12 C          67.8856   92.2734   14.0838 C.ar    1  UNL1        0.0116
     13 C          67.6117   93.0081   15.3626 C.ar    1  UNL1        0.0694
     14 C          66.3403   92.7533   16.1166 C.ar    1  UNL1        0.0229
     15 C          65.3427   91.7638   15.5919 C.ar    1  UNL1        0.0717
     16 CL         64.0713   91.5090   16.3459 Cl      1  UNL1       -0.0809
     17 C          68.6094   93.9977   15.8873 C.1     1  UNL1        0.1004
     18 N          69.6071   94.9873   16.4120 N.1     1  UNL1       -0.1908
     19 O          60.7692   88.8977   10.4904 O.3     1  UNL1       -0.4640
     20 C          60.9993   87.7466    9.5564 C.3     1  UNL1        0.1703
     21 C          59.8697   87.2213    8.7210 C.3     1  UNL1        0.0613
     22 C          60.0999   86.0703    7.7870 C.3     1  UNL1        0.0828
     23 C          60.7628   84.9578    7.0302 C.3     1  UNL1        0.0193
     24 C          62.2001   84.9000    7.4557 C.3     1  UNL1        0.0193
     25 C          62.4254   85.9767    8.4754 C.3     1  UNL1        0.0828
     26 C          62.3591   87.1210    9.4579 C.3     1  UNL1        0.0613
     27 N          61.1273   86.7000    8.6802 N.3     1  UNL1       -0.1620
     28 S          60.8972   87.8510    9.6141 S.O2    1  UNL1        0.0420
     29 O          60.8268   86.8984   10.7707 O.2     1  UNL1       -0.1573
     30 O          60.9675   88.8036    8.4576 O.2     1  UNL1       -0.1573
     31 C          60.6670   89.0020   10.5481 C.3     1  UNL1        0.1459
     32 C          60.5011   90.4749   10.7783 C.3     1  UNL1        0.0270
     33 C          60.4343   89.5227   11.9354 C.3     1  UNL1        0.0270
@<TRIPOS>BOND
     1     1     2    1
     2     2     3   ar
     3     3     8    1
     4     8    10    1
     5    10    11   ar
     6    11    12   ar
     7    12    13   ar
     8    13    17    1
     9    17    18    3
    10    13    14   ar
    11    14    15   ar
    12    15    16    1
    13     3     4   ar
    14     4     5   ar
    15     5     6   ar
    16     6     7   ar
    17     7    19    1
    18    20    19    1
    19    20    21    1
    20    22    21    1
    21    22    23    1
    22    23    24    1
    23    25    24    1
    24    25    26    1
    25    25    27    1
    26    27    28    1
    27    28    29    2
    28    28    30    2
    29    28    31    1
    30    31    32    1
    31    32    33    1
    32     7     2   ar
    33    26    20    1
    34    33    31    1
    35    15    10   ar
    36    27    22    1
    37     8     9    1
@<TRIPOS>MOLECULE
*****
 33 37 0 0 0
SMALL
GASTEIGER

@<TRIPOS>ATOM
      1 C          63.7290   87.4664   13.1154 C.3     1  UNL1        0.0389
      2 C          63.5218   87.3713   14.5979 C.ar    1  UNL1        0.0629
      3 C          62.9094   88.5190   15.3448 C.ar    1  UNL1        0.1344
      4 N          62.7022   88.4238   16.8274 N.ar    1  UNL1       -0.2091
      5 C          63.1073   87.1810   17.5630 C.ar    1  UNL1        0.2027
      6 N          63.7197   86.0334   16.8162 N.ar    1  UNL1       -0.1895
      7 C          63.9269   86.1285   15.3337 C.ar    1  UNL1        0.2247
      8 N          62.5042   89.7618   14.6091 N.pl3   1  UNL1       -0.2974
      9 H          61.5719   90.0754   14.6488 H       1  UNL1        0.1536
     10 C          63.5196   90.5268   13.8130 C.ar    1  UNL1        0.0601
     11 C          64.7941   90.9803   14.4612 C.ar    1  UNL1        0.0162
     12 C          65.8095   91.7453   13.6650 C.ar    1  UNL1        0.0116
     13 C          65.5503   92.0567   12.2208 C.ar    1  UNL1        0.0694
     14 C          64.2759   91.6032   11.5727 C.ar    1  UNL1        0.0229
     15 C          63.2605   90.8383   12.3687 C.ar    1  UNL1        0.0717
     16 CL         61.9861   90.3848   11.7206 Cl      1  UNL1       -0.0809
     17 C          66.5657   92.8217   11.4247 C.1     1  UNL1        0.1004
     18 N          67.5811   93.5867   10.6286 N.1     1  UNL1       -0.1908
     19 O          64.5393   84.9808   14.5868 O.3     1  UNL1       -0.4640
     20 C          63.7203   83.7614   14.2828 C.3     1  UNL1        0.1703
     21 C          64.2914   82.6679   13.4295 C.3     1  UNL1        0.0613
     22 C          63.4723   81.4486   13.1255 C.3     1  UNL1        0.0828
     23 C          62.3436   80.4615   13.0867 C.3     1  UNL1        0.0193
     24 C          61.2113   81.0202   13.8966 C.3     1  UNL1        0.0193
     25 C          61.6403   82.3525   14.4359 C.3     1  UNL1        0.0828
     26 C          62.3302   83.6355   14.8322 C.3     1  UNL1        0.0613
     27 N          63.0377   82.6173   13.9594 N.3     1  UNL1       -0.1620
     28 S          63.8567   83.8366   14.2633 S.O2    1  UNL1        0.0420
     29 O          64.3206   83.2061   15.5429 O.2     1  UNL1       -0.1573
     30 O          63.3929   84.4671   12.9838 O.2     1  UNL1       -0.1573
     31 C          64.6758   85.0560   14.5673 C.3     1  UNL1        0.1459
     32 C          65.0561   86.4745   14.2622 C.3     1  UNL1        0.0270
     33 C          65.7139   85.7494   15.3987 C.3     1  UNL1        0.0270
@<TRIPOS>BOND
     1     1     2    1
     2     2     3   ar
     3     3     8    1
     4     8    10    1
     5    10    11   ar
     6    11    12   ar
     7    12    13   ar
     8    13    17    1
     9    17    18    3
    10    13    14   ar
    11    14    15   ar
    12    15    16    1
    13     3     4   ar
    14     4     5   ar
    15     5     6   ar
    16     6     7   ar
    17     7    19    1
    18    20    19    1
    19    20    21    1
    20    22    21    1
    21    22    23    1
    22    23    24    1
    23    25    24    1
    24    25    26    1
    25    25    27    1
    26    27    28    1
    27    28    29    2
    28    28    30    2
    29    28    31    1
    30    31    32    1
    31    32    33    1
    32     7     2   ar
    33    26    20    1
    34    33    31    1
    35    15    10   ar
    36    27    22    1
    37     8     9    1
