@<TRIPOS>MOLECULE
*****
 20 22 0 0 0
SMALL
GASTEIGER

@<TRIPOS>ATOM
      1 C          65.7556   92.5760   11.9902 C.2     1  UNL1        0.1223
      2 C          65.6843   91.9657   13.3585 C.2     1  UNL1        0.0343
      3 C          64.6144   90.9641   13.6782 C.2     1  UNL1        0.0232
      4 C          63.6158   90.5728   12.6296 C.2     1  UNL1        0.0975
      5 N          62.4580   89.6194   12.6521 N.2     1  UNL1       -0.2200
      6 C          61.8137   89.6406   11.2977 C.2     1  UNL1        0.1901
      7 N          62.5733   90.6070   10.4381 N.2     1  UNL1       -0.2236
      8 C          63.6871   91.1832   11.2613 C.2     1  UNL1        0.0863
      9 C          64.7569   92.1848   10.9416 C.3     1  UNL1        0.1112
     10 C          66.4583   94.8990   11.0630 C.3     1  UNL1        0.2520
     11 O          66.8254   93.5776   11.6705 O.2     1  UNL1       -0.4753
     12 S          60.6194   88.8364   10.8769 S.3     1  UNL1       -0.0709
     13 C          60.7358   87.8553    9.7482 C.3     1  UNL1        0.0913
     14 C          61.5846   86.6286    9.9052 C.ar    1  UNL1       -0.0109
     15 C          62.3469   86.0888    8.7315 C.ar    1  UNL1       -0.0029
     16 C          63.1957   84.8621    8.8885 C.ar    1  UNL1        0.0064
     17 C          63.2822   84.1751   10.2192 C.ar    1  UNL1        0.0345
     18 BR         64.1310   82.9484   10.3762 Br      1  UNL1       -0.0490
     19 C          62.5198   84.7150   11.3929 C.ar    1  UNL1        0.0064
     20 C          61.6710   85.9417   11.2358 C.ar    1  UNL1       -0.0029
@<TRIPOS>BOND
     1    10    11    1
     2    11     1    1
     3     1     2    2
     4     2     3    1
     5     3     4    2
     6     4     5    1
     7     5     6    2
     8     6    12    1
     9    12    13    1
    10    13    14    1
    11    14    15   ar
    12    15    16   ar
    13    16    17   ar
    14    17    18    1
    15    17    19   ar
    16    19    20   ar
    17     6     7    1
    18     7     8    2
    19     8     9    1
    20     9     1    1
    21     8     4    1
    22    20    14   ar
@<TRIPOS>MOLECULE
*****
 20 22 0 0 0
SMALL
GASTEIGER

@<TRIPOS>ATOM
      1 C          65.3620   91.7881   13.3173 C.2     1  UNL1        0.1223
      2 C          65.4642   92.4151   11.9585 C.2     1  UNL1        0.0343
      3 C          64.4937   92.0320   10.8808 C.2     1  UNL1        0.0232
      4 C          63.4211   91.0218   11.1619 C.2     1  UNL1        0.0975
      5 N          62.3308   90.4506   10.3046 N.2     1  UNL1       -0.2200
      6 C          61.5547   89.4705   11.1336 C.2     1  UNL1        0.1901
      7 N          62.1654   89.4360   12.5032 N.2     1  UNL1       -0.2236
      8 C          63.3189   90.3949   12.5207 C.2     1  UNL1        0.0863
      9 C          64.2893   90.7780   13.5984 C.3     1  UNL1        0.1112
     10 C          66.8411   93.5797   14.4800 C.3     1  UNL1        0.2520
     11 O          66.3324   92.1712   14.3950 O.2     1  UNL1       -0.4753
     12 S          60.3751   88.6661   10.6737 S.3     1  UNL1       -0.0709
     13 C          60.5421   87.6420    9.5904 C.3     1  UNL1        0.0913
     14 C          61.4731   86.4832    9.7908 C.ar    1  UNL1       -0.0109
     15 C          61.5831   85.8338   11.1385 C.ar    1  UNL1       -0.0029
     16 C          62.5141   84.6750   11.3390 C.ar    1  UNL1        0.0064
     17 C          63.3353   84.1655   10.1917 C.ar    1  UNL1        0.0345
     18 BR         64.2663   83.0066   10.3921 Br      1  UNL1       -0.0490
     19 C          63.2253   84.8148    8.8440 C.ar    1  UNL1        0.0064
     20 C          62.2942   85.9737    8.6436 C.ar    1  UNL1       -0.0029
@<TRIPOS>BOND
     1    10    11    1
     2    11     1    1
     3     1     2    2
     4     2     3    1
     5     3     4    2
     6     4     5    1
     7     5     6    2
     8     6    12    1
     9    12    13    1
    10    13    14    1
    11    14    15   ar
    12    15    16   ar
    13    16    17   ar
    14    17    18    1
    15    17    19   ar
    16    19    20   ar
    17     6     7    1
    18     7     8    2
    19     8     9    1
    20     9     1    1
    21     8     4    1
    22    20    14   ar
@<TRIPOS>MOLECULE
*****
 20 22 0 0 0
SMALL
GASTEIGER

@<TRIPOS>ATOM
      1 C          61.3794   86.4146    8.9842 C.2     1  UNL1        0.1223
      2 C          62.4362   85.5581    8.3523 C.2     1  UNL1        0.0343
      3 C          63.2678   84.6437    9.2022 C.2     1  UNL1        0.0232
      4 C          63.0426   84.5858   10.6840 C.2     1  UNL1        0.0975
      5 N          63.7021   83.7873   11.7691 N.2     1  UNL1       -0.2200
      6 C          63.0528   84.1503   13.0717 C.2     1  UNL1        0.1901
      7 N          61.9921   85.1732   12.7916 N.2     1  UNL1       -0.2236
      8 C          61.9858   85.4424   11.3159 C.2     1  UNL1        0.0863
      9 C          61.1542   86.3568   10.4661 C.3     1  UNL1        0.1112
     10 C          59.1442   86.9450    7.7708 C.3     1  UNL1        0.2520
     11 O          60.5478   87.3291    8.1343 O.2     1  UNL1       -0.4753
     12 S          63.4029   83.5889   14.4179 S.3     1  UNL1       -0.0709
     13 C          64.2989   84.3594   15.3419 C.3     1  UNL1        0.0913
     14 C          64.0312   85.8110   15.6086 C.ar    1  UNL1       -0.0109
     15 C          64.5441   86.8546   14.6611 C.ar    1  UNL1       -0.0029
     16 C          64.2764   88.3062   14.9278 C.ar    1  UNL1        0.0064
     17 C          63.4959   88.7142   16.1420 C.ar    1  UNL1        0.0345
     18 BR         63.2282   90.1658   16.4088 Br      1  UNL1       -0.0490
     19 C          62.9830   87.6705   17.0896 C.ar    1  UNL1        0.0064
     20 C          63.2507   86.2189   16.8228 C.ar    1  UNL1       -0.0029
@<TRIPOS>BOND
     1    10    11    1
     2    11     1    1
     3     1     2    2
     4     2     3    1
     5     3     4    2
     6     4     5    1
     7     5     6    2
     8     6    12    1
     9    12    13    1
    10    13    14    1
    11    14    15   ar
    12    15    16   ar
    13    16    17   ar
    14    17    18    1
    15    17    19   ar
    16    19    20   ar
    17     6     7    1
    18     7     8    2
    19     8     9    1
    20     9     1    1
    21     8     4    1
    22    20    14   ar
@<TRIPOS>MOLECULE
*****
 20 22 0 0 0
SMALL
GASTEIGER

@<TRIPOS>ATOM
      1 C          63.7753   82.9150   11.7064 C.2     1  UNL1        0.1223
      2 C          64.0873   82.9828   10.2408 C.2     1  UNL1        0.0343
      3 C          63.5552   84.1144    9.4122 C.2     1  UNL1        0.0232
      4 C          62.7112   85.1782   10.0493 C.2     1  UNL1        0.0975
      5 N          62.0519   86.4046    9.4914 N.2     1  UNL1       -0.2200
      6 C          61.3325   87.0948   10.6122 C.2     1  UNL1        0.1901
      7 N          61.5471   86.2949   11.8628 N.2     1  UNL1       -0.2236
      8 C          62.3992   85.1104   11.5149 C.2     1  UNL1        0.0863
      9 C          62.9313   83.9788   12.3434 C.3     1  UNL1        0.1112
     10 C          63.4148   81.0931   13.5231 C.3     1  UNL1        0.2520
     11 O          64.3074   81.7835   12.5349 O.2     1  UNL1       -0.4753
     12 S          60.5380   88.3623   10.5016 S.3     1  UNL1       -0.0709
     13 C          61.1818   89.6067    9.9658 C.3     1  UNL1        0.0913
     14 C          62.2896   90.2673   10.7315 C.ar    1  UNL1       -0.0109
     15 C          63.1914   91.2513   10.0470 C.ar    1  UNL1       -0.0029
     16 C          64.2992   91.9119   10.8127 C.ar    1  UNL1        0.0064
     17 C          64.5052   91.5886   12.2629 C.ar    1  UNL1        0.0345
     18 BR         65.6130   92.2492   13.0286 Br      1  UNL1       -0.0490
     19 C          63.6034   90.6047   12.9474 C.ar    1  UNL1        0.0064
     20 C          62.4955   89.9440   12.1817 C.ar    1  UNL1       -0.0029
@<TRIPOS>BOND
     1    10    11    1
     2    11     1    1
     3     1     2    2
     4     2     3    1
     5     3     4    2
     6     4     5    1
     7     5     6    2
     8     6    12    1
     9    12    13    1
    10    13    14    1
    11    14    15   ar
    12    15    16   ar
    13    16    17   ar
    14    17    18    1
    15    17    19   ar
    16    19    20   ar
    17     6     7    1
    18     7     8    2
    19     8     9    1
    20     9     1    1
    21     8     4    1
    22    20    14   ar
@<TRIPOS>MOLECULE
*****
 20 22 0 0 0
SMALL
GASTEIGER

@<TRIPOS>ATOM
      1 C          63.3210   82.4536   13.8228 C.2     1  UNL1        0.1223
      2 C          62.8930   82.8830   12.4508 C.2     1  UNL1        0.0343
      3 C          62.9130   84.3362   12.0795 C.2     1  UNL1        0.0232
      4 C          63.3610   85.3599   13.0801 C.2     1  UNL1        0.0975
      5 N          63.4857   86.8527   13.0017 N.2     1  UNL1       -0.2200
      6 C          63.9908   87.3458   14.3253 C.2     1  UNL1        0.1901
      7 N          64.1782   86.1578   15.2217 N.2     1  UNL1       -0.2236
      8 C          63.7889   84.9304   14.4521 C.2     1  UNL1        0.0863
      9 C          63.7689   83.4773   14.8234 C.3     1  UNL1        0.1112
     10 C          62.3963   80.0522   13.4644 C.3     1  UNL1        0.2520
     11 O          63.3010   81.0004   14.1941 O.2     1  UNL1       -0.4753
     12 S          64.2610   88.7759   14.6886 S.3     1  UNL1       -0.0709
     13 C          63.4831   89.8767   14.0305 C.3     1  UNL1        0.0913
     14 C          64.1740   90.8331   13.1043 C.ar    1  UNL1       -0.0109
     15 C          65.3660   91.6094   13.5805 C.ar    1  UNL1       -0.0029
     16 C          66.0569   92.5658   12.6543 C.ar    1  UNL1        0.0064
     17 C          65.5558   92.7461   11.2519 C.ar    1  UNL1        0.0345
     18 BR         66.2467   93.7025   10.3258 Br      1  UNL1       -0.0490
     19 C          64.3638   91.9699   10.7758 C.ar    1  UNL1        0.0064
     20 C          63.6729   91.0134   11.7021 C.ar    1  UNL1       -0.0029
@<TRIPOS>BOND
     1    10    11    1
     2    11     1    1
     3     1     2    2
     4     2     3    1
     5     3     4    2
     6     4     5    1
     7     5     6    2
     8     6    12    1
     9    12    13    1
    10    13    14    1
    11    14    15   ar
    12    15    16   ar
    13    16    17   ar
    14    17    18    1
    15    17    19   ar
    16    19    20   ar
    17     6     7    1
    18     7     8    2
    19     8     9    1
    20     9     1    1
    21     8     4    1
    22    20    14   ar
@<TRIPOS>MOLECULE
*****
 20 22 0 0 0
SMALL
GASTEIGER

@<TRIPOS>ATOM
      1 C          60.4559   85.9558    7.5793 C.2     1  UNL1        0.1223
      2 C          59.3795   86.9885    7.4219 C.2     1  UNL1        0.0343
      3 C          59.3975   88.2258    8.2696 C.2     1  UNL1        0.0232
      4 C          60.4918   88.4305    9.2748 C.2     1  UNL1        0.0975
      5 N          60.7699   89.5413   10.2436 N.2     1  UNL1       -0.2200
      6 C          62.0183   89.1952   10.9998 C.2     1  UNL1        0.1901
      7 N          62.5117   87.8704   10.4984 N.2     1  UNL1       -0.2236
      8 C          61.5682   87.3978    9.4323 C.2     1  UNL1        0.0863
      9 C          61.5503   86.1604    8.5845 C.3     1  UNL1        0.1112
     10 C          61.6547   84.3308    5.9445 C.3     1  UNL1        0.2520
     11 O          60.4380   84.7184    6.7316 O.2     1  UNL1       -0.4753
     12 S          62.6605   90.0278   12.0697 S.3     1  UNL1       -0.0709
     13 C          63.6087   91.1283   11.6956 C.3     1  UNL1        0.0913
     14 C          64.6072   91.6303   12.6961 C.ar    1  UNL1       -0.0109
     15 C          65.5230   92.7630   12.3381 C.ar    1  UNL1       -0.0029
     16 C          66.5216   93.2650   13.3385 C.ar    1  UNL1        0.0064
     17 C          66.6043   92.6342   14.6970 C.ar    1  UNL1        0.0345
     18 BR         67.6028   93.1362   15.6975 Br      1  UNL1       -0.0490
     19 C          65.6884   91.5015   15.0550 C.ar    1  UNL1        0.0064
     20 C          64.6898   90.9995   14.0544 C.ar    1  UNL1       -0.0029
@<TRIPOS>BOND
     1    10    11    1
     2    11     1    1
     3     1     2    2
     4     2     3    1
     5     3     4    2
     6     4     5    1
     7     5     6    2
     8     6    12    1
     9    12    13    1
    10    13    14    1
    11    14    15   ar
    12    15    16   ar
    13    16    17   ar
    14    17    18    1
    15    17    19   ar
    16    19    20   ar
    17     6     7    1
    18     7     8    2
    19     8     9    1
    20     9     1    1
    21     8     4    1
    22    20    14   ar
@<TRIPOS>MOLECULE
*****
 20 22 0 0 0
SMALL
GASTEIGER

@<TRIPOS>ATOM
      1 C          60.6913   88.3263    9.3545 C.2     1  UNL1        0.1223
      2 C          61.1146   87.1388   10.1674 C.2     1  UNL1        0.0343
      3 C          62.0898   87.3103   11.2941 C.2     1  UNL1        0.0232
      4 C          62.6416   88.6693   11.6081 C.2     1  UNL1        0.0975
      5 N          63.6109   89.1428   12.6503 N.2     1  UNL1       -0.2200
      6 C          63.7866   90.6229   12.4816 C.2     1  UNL1        0.1901
      7 N          62.9260   91.0642   11.3352 N.2     1  UNL1       -0.2236
      8 C          62.2183   89.8568   10.7953 C.2     1  UNL1        0.0863
      9 C          61.2431   89.6852    9.6685 C.3     1  UNL1        0.1112
     10 C          59.2621   86.7812    7.8314 C.3     1  UNL1        0.2520
     11 O          59.7161   88.1547    8.2278 O.2     1  UNL1       -0.4753
     12 S          64.6683   91.5066   13.3135 S.3     1  UNL1       -0.0709
     13 C          66.0973   91.7287   12.9153 C.3     1  UNL1        0.0913
     14 C          66.4343   92.7479   11.8677 C.ar    1  UNL1       -0.0109
     15 C          66.0253   94.1789   12.0544 C.ar    1  UNL1       -0.0029
     16 C          66.3622   95.1981   11.0068 C.ar    1  UNL1        0.0064
     17 C          67.1082   94.7863    9.7722 C.ar    1  UNL1        0.0345
     18 BR         67.4451   95.8055    8.7245 Br      1  UNL1       -0.0490
     19 C          67.5172   93.3552    9.5854 C.ar    1  UNL1        0.0064
     20 C          67.1802   92.3360   10.6332 C.ar    1  UNL1       -0.0029
@<TRIPOS>BOND
     1    10    11    1
     2    11     1    1
     3     1     2    2
     4     2     3    1
     5     3     4    2
     6     4     5    1
     7     5     6    2
     8     6    12    1
     9    12    13    1
    10    13    14    1
    11    14    15   ar
    12    15    16   ar
    13    16    17   ar
    14    17    18    1
    15    17    19   ar
    16    19    20   ar
    17     6     7    1
    18     7     8    2
    19     8     9    1
    20     9     1    1
    21     8     4    1
    22    20    14   ar
@<TRIPOS>MOLECULE
*****
 20 22 0 0 0
SMALL
GASTEIGER

@<TRIPOS>ATOM
      1 C          65.5637   92.3509   12.8021 C.2     1  UNL1        0.1223
      2 C          65.3995   92.7101   11.3551 C.2     1  UNL1        0.0343
      3 C          64.3241   92.0579   10.5377 C.2     1  UNL1        0.0232
      4 C          63.4129   91.0464   11.1674 C.2     1  UNL1        0.0975
      5 N          62.2713   90.2439   10.6172 N.2     1  UNL1       -0.2200
      6 C          61.7299   89.3887   11.7242 C.2     1  UNL1        0.1901
      7 N          62.5369   89.6626   12.9586 N.2     1  UNL1       -0.2236
      8 C          63.5770   90.6872   12.6144 C.2     1  UNL1        0.0863
      9 C          64.6525   91.3394   13.4318 C.3     1  UNL1        0.1112
     10 C          67.5298   92.1678   14.4905 C.3     1  UNL1        0.2520
     11 O          66.6391   93.0031   13.6195 O.2     1  UNL1       -0.4753
     12 S          60.5829   88.4281   11.6158 S.3     1  UNL1       -0.0709
     13 C          59.8959   88.2259   10.2978 C.3     1  UNL1        0.0913
     14 C          60.4616   87.2622    9.2972 C.ar    1  UNL1       -0.0109
     15 C          61.8849   86.8045    9.4184 C.ar    1  UNL1       -0.0029
     16 C          62.4506   85.8408    8.4178 C.ar    1  UNL1        0.0064
     17 C          61.5929   85.3346    7.2961 C.ar    1  UNL1        0.0345
     18 BR         62.1586   84.3709    6.2955 Br      1  UNL1       -0.0490
     19 C          60.1696   85.7923    7.1749 C.ar    1  UNL1        0.0064
     20 C          59.6039   86.7561    8.1756 C.ar    1  UNL1       -0.0029
@<TRIPOS>BOND
     1    10    11    1
     2    11     1    1
     3     1     2    2
     4     2     3    1
     5     3     4    2
     6     4     5    1
     7     5     6    2
     8     6    12    1
     9    12    13    1
    10    13    14    1
    11    14    15   ar
    12    15    16   ar
    13    16    17   ar
    14    17    18    1
    15    17    19   ar
    16    19    20   ar
    17     6     7    1
    18     7     8    2
    19     8     9    1
    20     9     1    1
    21     8     4    1
    22    20    14   ar
@<TRIPOS>MOLECULE
*****
 20 22 0 0 0
SMALL
GASTEIGER

@<TRIPOS>ATOM
      1 C          63.4447   83.2941   13.1046 C.2     1  UNL1        0.1223
      2 C          62.6943   83.4370   11.8138 C.2     1  UNL1        0.0343
      3 C          62.3914   84.8016   11.2694 C.2     1  UNL1        0.0232
      4 C          62.8391   86.0232   12.0159 C.2     1  UNL1        0.0975
      5 N          62.6867   87.4874   11.7280 N.2     1  UNL1       -0.2200
      6 C          63.3430   88.2494   12.8410 C.2     1  UNL1        0.1901
      7 N          63.9010   87.2561   13.8167 N.2     1  UNL1       -0.2236
      8 C          63.5895   85.8802   13.3067 C.2     1  UNL1        0.0863
      9 C          63.8924   84.5157   13.8511 C.3     1  UNL1        0.1112
     10 C          62.8022   80.7934   13.3936 C.3     1  UNL1        0.2520
     11 O          63.7476   81.9295   13.6490 O.2     1  UNL1       -0.4753
     12 S          63.4266   89.7425   12.9577 S.3     1  UNL1       -0.0709
     13 C          63.5456   90.3837   14.3085 C.3     1  UNL1        0.0913
     14 C          64.7869   91.1435   14.6713 C.ar    1  UNL1       -0.0109
     15 C          65.9443   91.1884   13.7181 C.ar    1  UNL1       -0.0029
     16 C          67.1856   91.9482   14.0810 C.ar    1  UNL1        0.0064
     17 C          67.2697   92.6632   15.3970 C.ar    1  UNL1        0.0345
     18 BR         68.5110   93.4230   15.7598 Br      1  UNL1       -0.0490
     19 C          66.1123   92.6183   16.3501 C.ar    1  UNL1        0.0064
     20 C          64.8709   91.8585   15.9872 C.ar    1  UNL1       -0.0029
@<TRIPOS>BOND
     1    10    11    1
     2    11     1    1
     3     1     2    2
     4     2     3    1
     5     3     4    2
     6     4     5    1
     7     5     6    2
     8     6    12    1
     9    12    13    1
    10    13    14    1
    11    14    15   ar
    12    15    16   ar
    13    16    17   ar
    14    17    18    1
    15    17    19   ar
    16    19    20   ar
    17     6     7    1
    18     7     8    2
    19     8     9    1
    20     9     1    1
    21     8     4    1
    22    20    14   ar
