@<TRIPOS>MOLECULE
*****
 43 46 0 0 0
SMALL
GASTEIGER

@<TRIPOS>ATOM
      1 N          62.6239   89.6640   11.8557 N.3     1  UNL1       -0.2699
      2 C          63.3631   91.4699   10.1403 C.3     1  UNL1        0.0188
      3 C          62.2910   90.6080   10.7386 C.3     1  UNL1        0.0722
      4 C          62.5504   90.1309   13.2793 C.3     1  UNL1        0.0924
      5 C          63.8069   90.4827   14.0191 C.3     1  UNL1        0.0950
      6 N          64.8703   91.2986   13.3457 N.am    1  UNL1       -0.2706
      7 C          65.5701   92.3891   14.1014 C.2     1  UNL1        0.4020
      8 O          65.2065   92.6637   15.5305 O.2     1  UNL1       -0.2264
      9 H          65.1089   91.1184   12.4077 H       1  UNL1        0.1527
     10 O          66.6334   93.2050   13.4279 O.3     1  UNL1       -0.4291
     11 C          66.2999   94.0116   12.2080 C.3     1  UNL1        0.2431
     12 C          66.9840   93.7192   10.9055 C.ar    1  UNL1        0.0509
     13 C          67.6222   92.4184   10.5173 C.ar    1  UNL1        0.0063
     14 C          68.1826   92.5715    9.1344 C.ar    1  UNL1        0.0073
     15 C          67.8908   93.9670    8.6679 C.ar    1  UNL1        0.0352
     16 S          67.1501   94.6762    9.7625 S.2     1  UNL1       -0.0871
     17 C          64.0000   90.0186   15.4324 C.3     1  UNL1        0.0474
     18 C          63.8133   88.5711   15.7786 C.ar    1  UNL1       -0.0205
     19 C          63.0394   88.1870   17.0047 C.ar    1  UNL1       -0.0042
     20 C          62.8527   86.7395   17.3509 C.ar    1  UNL1       -0.0003
     21 C          63.4400   85.6761   16.4710 C.ar    1  UNL1       -0.0000
     22 C          64.2139   86.0602   15.2448 C.ar    1  UNL1       -0.0003
     23 C          64.4006   87.5078   14.8986 C.ar    1  UNL1       -0.0042
     24 C          63.0305   88.2531   11.5492 C.3     1  UNL1        0.0924
     25 C          61.9835   87.2089   11.2968 C.3     1  UNL1        0.0950
     26 N          62.3532   85.7554   11.3195 N.am    1  UNL1       -0.2706
     27 C          62.8597   85.0908   10.0738 C.2     1  UNL1        0.4020
     28 O          62.9965   85.8797    8.8054 O.2     1  UNL1       -0.2264
     29 H          62.2634   85.2376   12.1520 H       1  UNL1        0.1527
     30 O          63.2293   83.6372   10.0965 O.3     1  UNL1       -0.4291
     31 C          63.9458   83.0640   11.2831 C.3     1  UNL1        0.2431
     32 C          63.1810   82.3032   12.3254 C.ar    1  UNL1        0.0509
     33 C          62.7824   80.8592   12.2478 C.ar    1  UNL1        0.0063
     34 C          62.0357   80.5163   13.5027 C.ar    1  UNL1        0.0073
     35 C          61.9728   81.7485   14.3559 C.ar    1  UNL1        0.0352
     36 S          62.6806   82.8528   13.6283 S.2     1  UNL1       -0.0871
     37 C          60.5669   87.6184   11.0217 C.3     1  UNL1        0.0474
     38 C          60.1032   87.8123    9.6085 C.ar    1  UNL1       -0.0205
     39 C          60.1070   89.1830    8.9993 C.ar    1  UNL1       -0.0042
     40 C          59.6433   89.3770    7.5860 C.ar    1  UNL1       -0.0003
     41 C          59.1758   88.2002    6.7819 C.ar    1  UNL1       -0.0000
     42 C          59.1720   86.8295    7.3910 C.ar    1  UNL1       -0.0003
     43 C          59.6357   86.6355    8.8044 C.ar    1  UNL1       -0.0042
@<TRIPOS>BOND
     1     2     3    1
     2     3     1    1
     3     1    24    1
     4    25    24    1
     5    25    37    1
     6    37    38    1
     7    38    39   ar
     8    39    40   ar
     9    40    41   ar
    10    41    42   ar
    11    42    43   ar
    12    25    26    1
    13    26    27   am
    14    27    28    2
    15    27    30    1
    16    30    31    1
    17    31    32    1
    18    32    33   ar
    19    33    34   ar
    20    34    35   ar
    21    35    36   ar
    22     1     4    1
    23     5     4    1
    24     5    17    1
    25    17    18    1
    26    18    19   ar
    27    19    20   ar
    28    20    21   ar
    29    21    22   ar
    30    22    23   ar
    31     5     6    1
    32     6     7   am
    33     7     8    2
    34     7    10    1
    35    10    11    1
    36    11    12    1
    37    12    13   ar
    38    13    14   ar
    39    14    15   ar
    40    15    16   ar
    41    43    38   ar
    42    36    32   ar
    43    23    18   ar
    44    16    12   ar
    45    26    29    1
    46     6     9    1
@<TRIPOS>MOLECULE
*****
 43 46 0 0 0
SMALL
GASTEIGER

@<TRIPOS>ATOM
      1 N          62.1188   89.7621   12.0233 N.3     1  UNL1       -0.2699
      2 C          59.6928   90.4642   11.4138 C.3     1  UNL1        0.0188
      3 C          61.1430   90.3504   11.0478 C.3     1  UNL1        0.0722
      4 C          62.4717   90.5102   13.2747 C.3     1  UNL1        0.0924
      5 C          63.8981   90.5715   13.7348 C.3     1  UNL1        0.0950
      6 N          64.9700   91.0380   12.7949 N.am    1  UNL1       -0.2706
      7 C          65.8559   92.1861   13.1781 C.2     1  UNL1        0.4020
      8 O          65.6700   92.8678   14.5013 O.2     1  UNL1       -0.2264
      9 H          65.0921   90.5906   11.9264 H       1  UNL1        0.1527
     10 O          66.9278   92.6525   12.2382 O.3     1  UNL1       -0.4291
     11 C          66.6043   92.8981   10.7942 C.3     1  UNL1        0.2431
     12 C          66.8217   94.2569   10.1975 C.ar    1  UNL1        0.0509
     13 C          67.5099   94.5490    8.8970 C.ar    1  UNL1        0.0063
     14 C          67.5026   96.0349    8.6922 C.ar    1  UNL1        0.0073
     15 C          66.8098   96.6612    9.8661 C.ar    1  UNL1        0.0352
     16 S          66.3890   95.5623   10.7963 S.2     1  UNL1       -0.0871
     17 C          64.2525   90.1662   15.1349 C.3     1  UNL1        0.0474
     18 C          63.9527   88.7762   15.6120 C.ar    1  UNL1       -0.0205
     19 C          64.4462   87.5930   14.8331 C.ar    1  UNL1       -0.0042
     20 C          64.1463   86.2030   15.3102 C.ar    1  UNL1       -0.0003
     21 C          63.3529   85.9959   16.5663 C.ar    1  UNL1       -0.0000
     22 C          62.8595   87.1791   17.3453 C.ar    1  UNL1       -0.0003
     23 C          63.1594   88.5692   16.8681 C.ar    1  UNL1       -0.0042
     24 C          62.7417   88.4257   11.7475 C.3     1  UNL1        0.0924
     25 C          62.0715   87.4648   10.8109 C.3     1  UNL1        0.0950
     26 N          61.8672   87.8385    9.3726 N.am    1  UNL1       -0.2706
     27 C          60.4818   87.8869    8.7997 C.2     1  UNL1        0.4020
     28 O          59.3006   87.5616    9.6651 O.2     1  UNL1       -0.2264
     29 H          62.6425   88.0519    8.8046 H       1  UNL1        0.1527
     30 O          60.2775   88.2606    7.3615 O.3     1  UNL1       -0.4291
     31 C          59.0085   88.9373    6.9353 C.3     1  UNL1        0.2431
     32 C          59.0590   90.0935    5.9809 C.ar    1  UNL1        0.0509
     33 C          60.2966   90.6711    5.3605 C.ar    1  UNL1        0.0063
     34 C          59.8834   91.8096    4.4756 C.ar    1  UNL1        0.0073
     35 C          58.3904   91.9355    4.5490 C.ar    1  UNL1        0.0352
     36 S          57.8810   90.8749    5.4794 S.2     1  UNL1       -0.0871
     37 C          61.6055   86.1301   11.3125 C.3     1  UNL1        0.0474
     38 C          62.5401   84.9569   11.3021 C.ar    1  UNL1       -0.0205
     39 C          62.9183   84.2879   12.5903 C.ar    1  UNL1       -0.0042
     40 C          63.8529   83.1147   12.5798 C.ar    1  UNL1       -0.0003
     41 C          64.4093   82.6106   11.2813 C.ar    1  UNL1       -0.0000
     42 C          64.0312   83.2796    9.9932 C.ar    1  UNL1       -0.0003
     43 C          63.0965   84.4528   10.0035 C.ar    1  UNL1       -0.0042
@<TRIPOS>BOND
     1     2     3    1
     2     3     1    1
     3     1    24    1
     4    25    24    1
     5    25    37    1
     6    37    38    1
     7    38    39   ar
     8    39    40   ar
     9    40    41   ar
    10    41    42   ar
    11    42    43   ar
    12    25    26    1
    13    26    27   am
    14    27    28    2
    15    27    30    1
    16    30    31    1
    17    31    32    1
    18    32    33   ar
    19    33    34   ar
    20    34    35   ar
    21    35    36   ar
    22     1     4    1
    23     5     4    1
    24     5    17    1
    25    17    18    1
    26    18    19   ar
    27    19    20   ar
    28    20    21   ar
    29    21    22   ar
    30    22    23   ar
    31     5     6    1
    32     6     7   am
    33     7     8    2
    34     7    10    1
    35    10    11    1
    36    11    12    1
    37    12    13   ar
    38    13    14   ar
    39    14    15   ar
    40    15    16   ar
    41    43    38   ar
    42    36    32   ar
    43    23    18   ar
    44    16    12   ar
    45    26    29    1
    46     6     9    1
@<TRIPOS>MOLECULE
*****
 43 46 0 0 0
SMALL
GASTEIGER

@<TRIPOS>ATOM
      1 N          63.1109   89.7319   12.1040 N.3     1  UNL1       -0.2699
      2 C          62.8567   91.2730   10.0279 C.3     1  UNL1        0.0188
      3 C          63.6562   90.8033   11.2070 C.3     1  UNL1        0.0722
      4 C          62.6767   90.0710   13.4992 C.3     1  UNL1        0.0924
      5 C          63.6968   90.2017   14.5912 C.3     1  UNL1        0.0950
      6 N          64.9662   90.9619   14.3447 N.am    1  UNL1       -0.2706
      7 C          65.3708   92.0676   15.2740 C.2     1  UNL1        0.4020
      8 O          64.5060   92.4132   16.4499 O.2     1  UNL1       -0.2264
      9 H          65.5338   90.7352   13.5729 H       1  UNL1        0.1527
     10 O          66.6401   92.8278   15.0274 O.3     1  UNL1       -0.4291
     11 C          66.6532   93.9709   14.0562 C.3     1  UNL1        0.2431
     12 C          66.6311   93.7018   12.5808 C.ar    1  UNL1        0.0509
     13 C          67.0341   92.4210   11.9120 C.ar    1  UNL1        0.0063
     14 C          66.8542   92.5938   10.4329 C.ar    1  UNL1        0.0073
     15 C          66.3399   93.9814   10.1875 C.ar    1  UNL1        0.0352
     16 S          66.2021   94.6661   11.5150 S.2     1  UNL1       -0.0871
     17 C          63.4474   89.5723   15.9297 C.3     1  UNL1        0.0474
     18 C          63.5140   88.0815   16.0816 C.ar    1  UNL1       -0.0205
     19 C          62.8115   87.4120   17.2254 C.ar    1  UNL1       -0.0042
     20 C          62.8781   85.9213   17.3773 C.ar    1  UNL1       -0.0003
     21 C          63.6471   85.0999   16.3853 C.ar    1  UNL1       -0.0000
     22 C          64.3496   85.7694   15.2415 C.ar    1  UNL1       -0.0003
     23 C          64.2830   87.2602   15.0896 C.ar    1  UNL1       -0.0042
     24 C          62.9997   88.3214   11.6059 C.3     1  UNL1        0.0924
     25 C          61.6935   87.8167   11.0681 C.3     1  UNL1        0.0950
     26 N          60.8131   88.7250   10.2620 N.am    1  UNL1       -0.2706
     27 C          60.3517   88.3057    8.8978 C.2     1  UNL1        0.4020
     28 O          60.7707   86.9780    8.3396 O.2     1  UNL1       -0.2264
     29 H          60.5381   89.5965   10.6284 H       1  UNL1        0.1527
     30 O          59.4713   89.2140    8.0917 O.3     1  UNL1       -0.4291
     31 C          59.4063   89.0661    6.6004 C.3     1  UNL1        0.2431
     32 C          59.2369   90.2783    5.7332 C.ar    1  UNL1        0.0509
     33 C          60.3354   91.0214    5.0324 C.ar    1  UNL1        0.0063
     34 C          59.7168   92.1626    4.2806 C.ar    1  UNL1        0.0073
     35 C          58.2359   92.1247    4.5169 C.ar    1  UNL1        0.0352
     36 S          57.9394   90.9602    5.4147 S.2     1  UNL1       -0.0871
     37 C          61.2678   86.4036   11.3364 C.3     1  UNL1        0.0474
     38 C          62.2616   85.2861   11.2205 C.ar    1  UNL1       -0.0205
     39 C          62.8376   84.9304    9.8819 C.ar    1  UNL1       -0.0042
     40 C          63.8313   83.8129    9.7660 C.ar    1  UNL1       -0.0003
     41 C          64.2492   83.0509   10.9886 C.ar    1  UNL1       -0.0000
     42 C          63.6733   83.4065   12.3272 C.ar    1  UNL1       -0.0003
     43 C          62.6794   84.5241   12.4432 C.ar    1  UNL1       -0.0042
@<TRIPOS>BOND
     1     2     3    1
     2     3     1    1
     3     1    24    1
     4    25    24    1
     5    25    37    1
     6    37    38    1
     7    38    39   ar
     8    39    40   ar
     9    40    41   ar
    10    41    42   ar
    11    42    43   ar
    12    25    26    1
    13    26    27   am
    14    27    28    2
    15    27    30    1
    16    30    31    1
    17    31    32    1
    18    32    33   ar
    19    33    34   ar
    20    34    35   ar
    21    35    36   ar
    22     1     4    1
    23     5     4    1
    24     5    17    1
    25    17    18    1
    26    18    19   ar
    27    19    20   ar
    28    20    21   ar
    29    21    22   ar
    30    22    23   ar
    31     5     6    1
    32     6     7   am
    33     7     8    2
    34     7    10    1
    35    10    11    1
    36    11    12    1
    37    12    13   ar
    38    13    14   ar
    39    14    15   ar
    40    15    16   ar
    41    43    38   ar
    42    36    32   ar
    43    23    18   ar
    44    16    12   ar
    45    26    29    1
    46     6     9    1
@<TRIPOS>MOLECULE
*****
 43 46 0 0 0
SMALL
GASTEIGER

@<TRIPOS>ATOM
      1 N          61.7550   90.0157   11.3925 N.3     1  UNL1       -0.2699
      2 C          63.3338   91.4972    9.9563 C.3     1  UNL1        0.0188
      3 C          63.0129   90.1767   10.5914 C.3     1  UNL1        0.0722
      4 C          61.8329   89.7809   12.8720 C.3     1  UNL1        0.0924
      5 C          63.1676   89.7364   13.5551 C.3     1  UNL1        0.0950
      6 N          63.9557   88.4603   13.5790 N.am    1  UNL1       -0.2706
      7 C          64.0910   87.6861   14.8566 C.2     1  UNL1        0.4020
      8 O          63.4381   88.1880   16.1104 O.2     1  UNL1       -0.2264
      9 H          64.3842   88.1308   12.7561 H       1  UNL1        0.1527
     10 O          64.8790   86.4101   14.8804 O.3     1  UNL1       -0.4291
     11 C          64.3264   85.2001   15.5738 C.3     1  UNL1        0.2431
     12 C          63.7955   84.0513   14.7685 C.ar    1  UNL1        0.0509
     13 C          64.5006   83.3699   13.6334 C.ar    1  UNL1        0.0063
     14 C          63.6072   82.2797   13.1203 C.ar    1  UNL1        0.0073
     15 C          62.3499   82.2874   13.9384 C.ar    1  UNL1        0.0352
     16 S          62.4663   83.3823   14.9570 S.2     1  UNL1       -0.0871
     17 C          63.7143   90.9679   14.2143 C.3     1  UNL1        0.0474
     18 C          65.1252   91.3996   13.9444 C.ar    1  UNL1       -0.0205
     19 C          66.1842   91.1961   14.9870 C.ar    1  UNL1       -0.0042
     20 C          67.5952   91.6277   14.7172 C.ar    1  UNL1       -0.0003
     21 C          67.9471   92.2629   13.4046 C.ar    1  UNL1       -0.0000
     22 C          66.8881   92.4664   12.3620 C.ar    1  UNL1       -0.0003
     23 C          65.4771   92.0347   12.6319 C.ar    1  UNL1       -0.0042
     24 C          60.4193   90.0896   10.7142 C.3     1  UNL1        0.0924
     25 C          60.1104   89.1768    9.5646 C.3     1  UNL1        0.0950
     26 N          60.0811   89.7164    8.1654 N.am    1  UNL1       -0.2706
     27 C          59.2610   89.0299    7.1138 C.2     1  UNL1        0.4020
     28 O          58.4700   87.8038    7.4614 O.2     1  UNL1       -0.2264
     29 H          60.6003   90.5212    7.9372 H       1  UNL1        0.1527
     30 O          59.2317   89.5695    5.7145 O.3     1  UNL1       -0.4291
     31 C          59.2114   91.0513    5.4824 C.3     1  UNL1        0.2431
     32 C          60.0933   91.6580    4.4315 C.ar    1  UNL1        0.0509
     33 C          61.5329   91.3167    4.1841 C.ar    1  UNL1        0.0063
     34 C          62.0198   92.1601    3.0432 C.ar    1  UNL1        0.0073
     35 C          60.8811   93.0227    2.5856 C.ar    1  UNL1        0.0352
     36 S          59.6905   92.7123    3.4436 S.2     1  UNL1       -0.0871
     37 C          59.8307   87.7244    9.8144 C.3     1  UNL1        0.0474
     38 C          60.9564   86.7330    9.8137 C.ar    1  UNL1       -0.0205
     39 C          61.4163   86.1196   11.1030 C.ar    1  UNL1       -0.0042
     40 C          62.5419   85.1282   11.1024 C.ar    1  UNL1       -0.0003
     41 C          63.2076   84.7501    9.8125 C.ar    1  UNL1       -0.0000
     42 C          62.7478   85.3634    8.5232 C.ar    1  UNL1       -0.0003
     43 C          61.6221   86.3549    8.5238 C.ar    1  UNL1       -0.0042
@<TRIPOS>BOND
     1     2     3    1
     2     3     1    1
     3     1    24    1
     4    25    24    1
     5    25    37    1
     6    37    38    1
     7    38    39   ar
     8    39    40   ar
     9    40    41   ar
    10    41    42   ar
    11    42    43   ar
    12    25    26    1
    13    26    27   am
    14    27    28    2
    15    27    30    1
    16    30    31    1
    17    31    32    1
    18    32    33   ar
    19    33    34   ar
    20    34    35   ar
    21    35    36   ar
    22     1     4    1
    23     5     4    1
    24     5    17    1
    25    17    18    1
    26    18    19   ar
    27    19    20   ar
    28    20    21   ar
    29    21    22   ar
    30    22    23   ar
    31     5     6    1
    32     6     7   am
    33     7     8    2
    34     7    10    1
    35    10    11    1
    36    11    12    1
    37    12    13   ar
    38    13    14   ar
    39    14    15   ar
    40    15    16   ar
    41    43    38   ar
    42    36    32   ar
    43    23    18   ar
    44    16    12   ar
    45    26    29    1
    46     6     9    1
@<TRIPOS>MOLECULE
*****
 43 46 0 0 0
SMALL
GASTEIGER

@<TRIPOS>ATOM
      1 N          61.9097   89.9455   10.1981 N.3     1  UNL1       -0.2699
      2 C          59.7676   90.2989   11.6253 C.3     1  UNL1        0.0188
      3 C          60.4384   90.2240   10.2856 C.3     1  UNL1        0.0722
      4 C          62.8891   91.0816   10.1925 C.3     1  UNL1        0.0924
      5 C          63.6302   91.4391   11.4466 C.3     1  UNL1        0.0950
      6 N          62.9654   91.2800   12.7818 N.am    1  UNL1       -0.2706
      7 C          63.0373   89.9672   13.5038 C.2     1  UNL1        0.4020
      8 O          63.7739   88.8133   12.8906 O.2     1  UNL1       -0.2264
      9 H          62.4819   92.0373   13.1843 H       1  UNL1        0.1527
     10 O          62.3725   89.8082   14.8390 O.3     1  UNL1       -0.4291
     11 C          63.1898   89.4564   16.0466 C.3     1  UNL1        0.2431
     12 C          63.2219   88.0419   16.5445 C.ar    1  UNL1        0.0509
     13 C          62.6307   87.5464   17.8310 C.ar    1  UNL1        0.0063
     14 C          62.8942   86.0727   17.9249 C.ar    1  UNL1        0.0073
     15 C          63.6483   85.6574   16.6965 C.ar    1  UNL1        0.0352
     16 S          63.8508   86.8745   15.8434 S.2     1  UNL1       -0.0871
     17 C          65.0361   91.9556   11.3655 C.3     1  UNL1        0.0474
     18 C          65.7669   92.3410   12.6175 C.ar    1  UNL1       -0.0205
     19 C          66.1241   91.2936   13.6301 C.ar    1  UNL1       -0.0042
     20 C          66.8548   91.6790   14.8820 C.ar    1  UNL1       -0.0003
     21 C          67.2284   93.1120   15.1214 C.ar    1  UNL1       -0.0000
     22 C          66.8712   94.1594   14.1089 C.ar    1  UNL1       -0.0003
     23 C          66.1404   93.7739   12.8569 C.ar    1  UNL1       -0.0042
     24 C          62.4015   88.5308   10.1161 C.3     1  UNL1        0.0924
     25 C          61.4612   87.3931   10.3834 C.3     1  UNL1        0.0950
     26 N          61.4145   86.7624   11.7435 N.am    1  UNL1       -0.2706
     27 C          62.2224   85.5308   12.0273 C.2     1  UNL1        0.4020
     28 O          63.0770   84.9299   10.9509 O.2     1  UNL1       -0.2264
     29 H          60.8537   87.1568   12.4500 H       1  UNL1        0.1527
     30 O          62.1757   84.9001   13.3874 O.3     1  UNL1       -0.4291
     31 C          63.1328   83.7993   13.7369 C.3     1  UNL1        0.2431
     32 C          62.7949   82.3769   13.4009 C.ar    1  UNL1        0.0509
     33 C          63.2550   81.6244   12.1876 C.ar    1  UNL1        0.0063
     34 C          62.6821   80.2398   12.2560 C.ar    1  UNL1        0.0073
     35 C          61.8680   80.1366   13.5117 C.ar    1  UNL1        0.0352
     36 S          61.9377   81.4574   14.2192 S.2     1  UNL1       -0.0871
     37 C          60.5675   86.8861    9.2905 C.3     1  UNL1        0.0474
     38 C          61.1253   86.0010    8.2156 C.ar    1  UNL1       -0.0205
     39 C          60.2213   85.4526    7.1515 C.ar    1  UNL1       -0.0042
     40 C          60.7791   84.5674    6.0767 C.ar    1  UNL1       -0.0003
     41 C          62.2407   84.2306    6.0658 C.ar    1  UNL1       -0.0000
     42 C          63.1447   84.7790    7.1298 C.ar    1  UNL1       -0.0003
     43 C          62.5869   85.6642    8.2048 C.ar    1  UNL1       -0.0042
@<TRIPOS>BOND
     1     2     3    1
     2     3     1    1
     3     1    24    1
     4    25    24    1
     5    25    37    1
     6    37    38    1
     7    38    39   ar
     8    39    40   ar
     9    40    41   ar
    10    41    42   ar
    11    42    43   ar
    12    25    26    1
    13    26    27   am
    14    27    28    2
    15    27    30    1
    16    30    31    1
    17    31    32    1
    18    32    33   ar
    19    33    34   ar
    20    34    35   ar
    21    35    36   ar
    22     1     4    1
    23     5     4    1
    24     5    17    1
    25    17    18    1
    26    18    19   ar
    27    19    20   ar
    28    20    21   ar
    29    21    22   ar
    30    22    23   ar
    31     5     6    1
    32     6     7   am
    33     7     8    2
    34     7    10    1
    35    10    11    1
    36    11    12    1
    37    12    13   ar
    38    13    14   ar
    39    14    15   ar
    40    15    16   ar
    41    43    38   ar
    42    36    32   ar
    43    23    18   ar
    44    16    12   ar
    45    26    29    1
    46     6     9    1
@<TRIPOS>MOLECULE
*****
 43 46 0 0 0
SMALL
GASTEIGER

@<TRIPOS>ATOM
      1 N          63.7291   86.9927   15.6807 N.3     1  UNL1       -0.2699
      2 C          62.6463   86.9878   18.0424 C.3     1  UNL1        0.0188
      3 C          63.0946   87.7333   16.8204 C.3     1  UNL1        0.0722
      4 C          63.6223   85.4984   15.6051 C.3     1  UNL1        0.0924
      5 C          63.4032   84.8282   14.2813 C.3     1  UNL1        0.0950
      6 N          62.1529   85.1028   13.4993 N.am    1  UNL1       -0.2706
      7 C          62.1867   86.0558   12.3414 C.2     1  UNL1        0.4020
      8 O          63.4706   86.7341   11.9655 O.2     1  UNL1       -0.2264
      9 H          61.3102   84.6576   13.7460 H       1  UNL1        0.1527
     10 O          60.9364   86.3304   11.5595 O.3     1  UNL1       -0.4291
     11 C          61.0210   87.0052   10.2224 C.3     1  UNL1        0.2431
     12 C          61.4078   86.2157    9.0071 C.ar    1  UNL1        0.0509
     13 C          62.7464   85.5887    8.7522 C.ar    1  UNL1        0.0063
     14 C          62.6898   84.9002    7.4208 C.ar    1  UNL1        0.0073
     15 C          61.3162   85.1017    6.8528 C.ar    1  UNL1        0.0352
     16 S          60.5239   85.9147    7.8332 S.2     1  UNL1       -0.0871
     17 C          64.4344   83.8832   13.7393 C.3     1  UNL1        0.0474
     18 C          64.0708   82.9230   12.6458 C.ar    1  UNL1       -0.0205
     19 C          64.4382   83.2308   11.2245 C.ar    1  UNL1       -0.0042
     20 C          64.0746   82.2706   10.1310 C.ar    1  UNL1       -0.0003
     21 C          63.3435   81.0025   10.4589 C.ar    1  UNL1       -0.0000
     22 C          62.9760   80.6946   11.8803 C.ar    1  UNL1       -0.0003
     23 C          63.3397   81.6550   12.9737 C.ar    1  UNL1       -0.0042
     24 C          64.4704   87.7464   14.6166 C.3     1  UNL1        0.0924
     25 C          64.2150   89.2112   14.4190 C.3     1  UNL1        0.0950
     26 N          65.3429   90.1924   14.5413 N.am    1  UNL1       -0.2706
     27 C          65.1558   91.4561   15.3275 C.2     1  UNL1        0.4020
     28 O          63.8408   91.7386   15.9914 O.2     1  UNL1       -0.2264
     29 H          66.2060   90.0070   14.1055 H       1  UNL1        0.1527
     30 O          66.2838   92.4372   15.4498 O.3     1  UNL1       -0.4291
     31 C          66.4391   93.5317   14.4358 C.3     1  UNL1        0.2431
     32 C          66.6294   93.1908   12.9875 C.ar    1  UNL1        0.0509
     33 C          67.5180   92.1108   12.4453 C.ar    1  UNL1        0.0063
     34 C          67.4023   92.1225   10.9498 C.ar    1  UNL1        0.0073
     35 C          66.4420   93.2097   10.5677 C.ar    1  UNL1        0.0352
     36 S          65.9644   93.8699   11.8271 S.2     1  UNL1       -0.0871
     37 C          62.8315   89.6949   14.0991 C.3     1  UNL1        0.0474
     38 C          62.4629   90.0308   12.6844 C.ar    1  UNL1       -0.0205
     39 C          61.0322   89.9456   12.2418 C.ar    1  UNL1       -0.0042
     40 C          60.6635   90.2815   10.8271 C.ar    1  UNL1       -0.0003
     41 C          61.7255   90.7027    9.8551 C.ar    1  UNL1       -0.0000
     42 C          63.1562   90.7879   10.2977 C.ar    1  UNL1       -0.0003
     43 C          63.5249   90.4519   11.7124 C.ar    1  UNL1       -0.0042
@<TRIPOS>BOND
     1     2     3    1
     2     3     1    1
     3     1    24    1
     4    25    24    1
     5    25    37    1
     6    37    38    1
     7    38    39   ar
     8    39    40   ar
     9    40    41   ar
    10    41    42   ar
    11    42    43   ar
    12    25    26    1
    13    26    27   am
    14    27    28    2
    15    27    30    1
    16    30    31    1
    17    31    32    1
    18    32    33   ar
    19    33    34   ar
    20    34    35   ar
    21    35    36   ar
    22     1     4    1
    23     5     4    1
    24     5    17    1
    25    17    18    1
    26    18    19   ar
    27    19    20   ar
    28    20    21   ar
    29    21    22   ar
    30    22    23   ar
    31     5     6    1
    32     6     7   am
    33     7     8    2
    34     7    10    1
    35    10    11    1
    36    11    12    1
    37    12    13   ar
    38    13    14   ar
    39    14    15   ar
    40    15    16   ar
    41    43    38   ar
    42    36    32   ar
    43    23    18   ar
    44    16    12   ar
    45    26    29    1
    46     6     9    1
@<TRIPOS>MOLECULE
*****
 43 46 0 0 0
SMALL
GASTEIGER

@<TRIPOS>ATOM
      1 N          63.9210   87.3526   15.4598 N.3     1  UNL1       -0.2699
      2 C          62.7939   87.3985   17.8003 C.3     1  UNL1        0.0188
      3 C          63.1827   88.0983   16.5317 C.3     1  UNL1        0.0722
      4 C          64.2830   88.0438   14.1788 C.3     1  UNL1        0.0924
      5 C          64.0895   89.5253   14.0452 C.3     1  UNL1        0.0950
      6 N          65.2614   90.4507   14.1883 N.am    1  UNL1       -0.2706
      7 C          65.2102   91.5786   15.1757 C.2     1  UNL1        0.4020
      8 O          63.9872   91.7812   16.0202 O.2     1  UNL1       -0.2264
      9 H          66.0641   90.3177   13.6340 H       1  UNL1        0.1527
     10 O          66.3821   92.5039   15.3187 O.3     1  UNL1       -0.4291
     11 C          66.5252   93.6805   14.3993 C.3     1  UNL1        0.2431
     12 C          66.6433   93.4660   12.9195 C.ar    1  UNL1        0.0509
     13 C          67.2900   92.2911   12.2477 C.ar    1  UNL1        0.0063
     14 C          67.1818   92.4877   10.7646 C.ar    1  UNL1        0.0073
     15 C          66.4681   93.7842   10.5198 C.ar    1  UNL1        0.0352
     16 S          66.1353   94.3888   11.8516 S.2     1  UNL1       -0.0871
     17 C          62.7241   90.0814   13.7687 C.3     1  UNL1        0.0474
     18 C          62.1631   90.0355   12.3783 C.ar    1  UNL1       -0.0205
     19 C          63.0673   90.2324   11.1978 C.ar    1  UNL1       -0.0042
     20 C          62.5062   90.1865    9.8075 C.ar    1  UNL1       -0.0003
     21 C          61.0409   89.9437    9.5976 C.ar    1  UNL1       -0.0000
     22 C          60.1367   89.7467   10.7781 C.ar    1  UNL1       -0.0003
     23 C          60.6978   89.7926   12.1685 C.ar    1  UNL1       -0.0042
     24 C          64.2972   85.9158   15.6691 C.3     1  UNL1        0.0924
     25 C          63.5552   84.8328   14.9433 C.3     1  UNL1        0.0950
     26 N          62.4015   85.1826   14.0508 N.am    1  UNL1       -0.2706
     27 C          62.5925   85.2350   12.5640 C.2     1  UNL1        0.4020
     28 O          63.9372   84.9377   11.9696 O.2     1  UNL1       -0.2264
     29 H          61.5189   85.3777   14.4409 H       1  UNL1        0.1527
     30 O          61.4388   85.5848   11.6714 O.3     1  UNL1       -0.4291
     31 C          61.6441   86.5085   10.5076 C.3     1  UNL1        0.2431
     32 C          61.7385   85.9536    9.1172 C.ar    1  UNL1        0.0509
     33 C          62.9399   85.2892    8.5127 C.ar    1  UNL1        0.0063
     34 C          62.5920   84.8906    7.1091 C.ar    1  UNL1        0.0073
     35 C          61.1756   85.3086    6.8461 C.ar    1  UNL1        0.0352
     36 S          60.6481   85.9655    8.0872 S.2     1  UNL1       -0.0871
     37 C          63.9670   83.4001   15.1101 C.3     1  UNL1        0.0474
     38 C          63.2994   82.3287   14.3000 C.ar    1  UNL1       -0.0205
     39 C          61.9379   81.8332   14.6885 C.ar    1  UNL1       -0.0042
     40 C          61.2703   80.7618   13.8783 C.ar    1  UNL1       -0.0003
     41 C          61.9641   80.1858   12.6797 C.ar    1  UNL1       -0.0000
     42 C          63.3256   80.6812   12.2911 C.ar    1  UNL1       -0.0003
     43 C          63.9932   81.7527   13.1013 C.ar    1  UNL1       -0.0042
@<TRIPOS>BOND
     1     2     3    1
     2     3     1    1
     3     1    24    1
     4    25    24    1
     5    25    37    1
     6    37    38    1
     7    38    39   ar
     8    39    40   ar
     9    40    41   ar
    10    41    42   ar
    11    42    43   ar
    12    25    26    1
    13    26    27   am
    14    27    28    2
    15    27    30    1
    16    30    31    1
    17    31    32    1
    18    32    33   ar
    19    33    34   ar
    20    34    35   ar
    21    35    36   ar
    22     1     4    1
    23     5     4    1
    24     5    17    1
    25    17    18    1
    26    18    19   ar
    27    19    20   ar
    28    20    21   ar
    29    21    22   ar
    30    22    23   ar
    31     5     6    1
    32     6     7   am
    33     7     8    2
    34     7    10    1
    35    10    11    1
    36    11    12    1
    37    12    13   ar
    38    13    14   ar
    39    14    15   ar
    40    15    16   ar
    41    43    38   ar
    42    36    32   ar
    43    23    18   ar
    44    16    12   ar
    45    26    29    1
    46     6     9    1
@<TRIPOS>MOLECULE
*****
 43 46 0 0 0
SMALL
GASTEIGER

@<TRIPOS>ATOM
      1 N          61.9246   89.8757   11.6582 N.3     1  UNL1       -0.2699
      2 C          63.2310   91.2976    9.9198 C.3     1  UNL1        0.0188
      3 C          63.1108   90.0599   10.7588 C.3     1  UNL1        0.0722
      4 C          62.1167   89.7798   13.1427 C.3     1  UNL1        0.0924
      5 C          63.2452   90.5158   13.8021 C.3     1  UNL1        0.0950
      6 N          63.9108   91.6583   13.0938 N.am    1  UNL1       -0.2706
      7 C          65.3804   91.8985   13.2738 C.2     1  UNL1        0.4020
      8 O          66.1846   90.9961   14.1621 O.2     1  UNL1       -0.2264
      9 H          63.3830   92.2506   12.5107 H       1  UNL1        0.1527
     10 O          66.0459   93.0410   12.5655 O.3     1  UNL1       -0.4291
     11 C          66.3697   92.9316   11.1049 C.3     1  UNL1        0.2431
     12 C          66.5917   94.1719   10.2910 C.ar    1  UNL1        0.0509
     13 C          65.8478   95.4664   10.4357 C.ar    1  UNL1        0.0063
     14 C          66.3930   96.4299    9.4236 C.ar    1  UNL1        0.0073
     15 C          67.4738   95.7309    8.6533 C.ar    1  UNL1        0.0352
     16 S          67.5966   94.3354    9.1894 S.2     1  UNL1       -0.0871
     17 C          63.7082   90.1093   15.1697 C.3     1  UNL1        0.0474
     18 C          63.6992   88.6625   15.5653 C.ar    1  UNL1       -0.0205
     19 C          62.9833   88.2298   16.8104 C.ar    1  UNL1       -0.0042
     20 C          62.9744   86.7829   17.2060 C.ar    1  UNL1       -0.0003
     21 C          63.6813   85.7687   16.3565 C.ar    1  UNL1       -0.0000
     22 C          64.3972   86.2014   15.1114 C.ar    1  UNL1       -0.0003
     23 C          64.4062   87.6483   14.7158 C.ar    1  UNL1       -0.0042
     24 C          60.5463   89.7874   11.0730 C.3     1  UNL1        0.0924
     25 C          60.2792   88.8682    9.9182 C.3     1  UNL1        0.0950
     26 N          60.2388   89.4117    8.5208 N.am    1  UNL1       -0.2706
     27 C          59.3860   88.7462    7.4816 C.2     1  UNL1        0.4020
     28 O          58.5737   87.5372    7.8399 O.2     1  UNL1       -0.2264
     29 H          60.7720   90.2052    8.2856 H       1  UNL1        0.1527
     30 O          59.3456   89.2896    6.0841 O.3     1  UNL1       -0.4291
     31 C          59.1121   90.7536    5.8552 C.3     1  UNL1        0.2431
     32 C          59.8419   91.4665    4.7555 C.ar    1  UNL1        0.0509
     33 C          61.2739   91.2518    4.3640 C.ar    1  UNL1        0.0063
     34 C          61.5849   92.1718    3.2208 C.ar    1  UNL1        0.0073
     35 C          60.3450   92.9551    2.9058 C.ar    1  UNL1        0.0352
     36 S          59.2678   92.5192    3.8543 S.2     1  UNL1       -0.0871
     37 C          60.0526   87.4053   10.1609 C.3     1  UNL1        0.0474
     38 C          61.1843   86.4342   10.0000 C.ar    1  UNL1       -0.0205
     39 C          61.7984   86.2151    8.6490 C.ar    1  UNL1       -0.0042
     40 C          62.9301   85.2440    8.4882 C.ar    1  UNL1       -0.0003
     41 C          63.4479   84.4919    9.6782 C.ar    1  UNL1       -0.0000
     42 C          62.8340   84.7109   11.0291 C.ar    1  UNL1       -0.0003
     43 C          61.7021   85.6821   11.1901 C.ar    1  UNL1       -0.0042
@<TRIPOS>BOND
     1     2     3    1
     2     3     1    1
     3     1    24    1
     4    25    24    1
     5    25    37    1
     6    37    38    1
     7    38    39   ar
     8    39    40   ar
     9    40    41   ar
    10    41    42   ar
    11    42    43   ar
    12    25    26    1
    13    26    27   am
    14    27    28    2
    15    27    30    1
    16    30    31    1
    17    31    32    1
    18    32    33   ar
    19    33    34   ar
    20    34    35   ar
    21    35    36   ar
    22     1     4    1
    23     5     4    1
    24     5    17    1
    25    17    18    1
    26    18    19   ar
    27    19    20   ar
    28    20    21   ar
    29    21    22   ar
    30    22    23   ar
    31     5     6    1
    32     6     7   am
    33     7     8    2
    34     7    10    1
    35    10    11    1
    36    11    12    1
    37    12    13   ar
    38    13    14   ar
    39    14    15   ar
    40    15    16   ar
    41    43    38   ar
    42    36    32   ar
    43    23    18   ar
    44    16    12   ar
    45    26    29    1
    46     6     9    1
@<TRIPOS>MOLECULE
*****
 43 46 0 0 0
SMALL
GASTEIGER

@<TRIPOS>ATOM
      1 N          61.7404   89.9627   11.8154 N.3     1  UNL1       -0.2699
      2 C          59.2555   90.6675   11.5349 C.3     1  UNL1        0.0188
      3 C          60.2986   89.8229   12.2048 C.3     1  UNL1        0.0722
      4 C          62.5937   91.0128   12.4628 C.3     1  UNL1        0.0924
      5 C          63.9752   90.6697   12.9359 C.3     1  UNL1        0.0950
      6 N          64.2280   89.3637   13.6290 N.am    1  UNL1       -0.2706
      7 C          63.6168   89.0970   14.9726 C.2     1  UNL1        0.4020
      8 O          62.7529   90.1364   15.6232 O.2     1  UNL1       -0.2264
      9 H          64.7950   88.6814   13.2020 H       1  UNL1        0.1527
     10 O          63.8696   87.7910   15.6656 O.3     1  UNL1       -0.4291
     11 C          64.5946   86.6901   14.9498 C.3     1  UNL1        0.2431
     12 C          64.0468   85.2939   14.9706 C.ar    1  UNL1        0.0509
     13 C          62.6851   84.8881   15.4514 C.ar    1  UNL1        0.0063
     14 C          62.5612   83.4017   15.2922 C.ar    1  UNL1        0.0073
     15 C          63.8464   82.8889   14.7131 C.ar    1  UNL1        0.0352
     16 S          64.7645   84.0583   14.5143 S.2     1  UNL1       -0.0871
     17 C          65.1040   91.6328   12.7158 C.3     1  UNL1        0.0474
     18 C          66.0614   91.9335   13.8307 C.ar    1  UNL1       -0.0205
     19 C          67.5393   91.9194   13.5744 C.ar    1  UNL1       -0.0042
     20 C          68.4967   92.2202   14.6892 C.ar    1  UNL1       -0.0003
     21 C          67.9762   92.5350   16.0604 C.ar    1  UNL1       -0.0000
     22 C          66.4983   92.5490   16.3167 C.ar    1  UNL1       -0.0003
     23 C          65.5409   92.2483   15.2018 C.ar    1  UNL1       -0.0042
     24 C          62.3288   89.0525   10.7785 C.3     1  UNL1        0.0924
     25 C          61.4336   88.1692    9.9610 C.3     1  UNL1        0.0950
     26 N          60.9111   88.6484    8.6391 N.am    1  UNL1       -0.2706
     27 C          59.7148   87.9874    8.0212 C.2     1  UNL1        0.4020
     28 O          59.0409   86.8471    8.7252 O.2     1  UNL1       -0.2264
     29 H          61.3534   89.3968    8.1771 H       1  UNL1        0.1527
     30 O          59.1923   88.4667    6.6994 O.3     1  UNL1       -0.4291
     31 C          58.6114   89.8442    6.5774 C.3     1  UNL1        0.2431
     32 C          59.1283   90.7862    5.5307 C.ar    1  UNL1        0.0509
     33 C          60.5462   90.8776    5.0496 C.ar    1  UNL1        0.0063
     34 C          60.6124   91.9499    4.0029 C.ar    1  UNL1        0.0073
     35 C          59.2353   92.5213    3.8370 C.ar    1  UNL1        0.0352
     36 S          58.3182   91.8020    4.7812 S.2     1  UNL1       -0.0871
     37 C          61.0609   86.8065   10.4653 C.3     1  UNL1        0.0474
     38 C          62.0159   85.6608   10.3062 C.ar    1  UNL1       -0.0205
     39 C          62.6930   85.4262    8.9884 C.ar    1  UNL1       -0.0042
     40 C          63.6479   84.2805    8.8293 C.ar    1  UNL1       -0.0003
     41 C          63.9259   83.3693    9.9879 C.ar    1  UNL1       -0.0000
     42 C          63.2488   83.6039   11.3057 C.ar    1  UNL1       -0.0003
     43 C          62.2938   84.7496   11.4649 C.ar    1  UNL1       -0.0042
@<TRIPOS>BOND
     1     2     3    1
     2     3     1    1
     3     1    24    1
     4    25    24    1
     5    25    37    1
     6    37    38    1
     7    38    39   ar
     8    39    40   ar
     9    40    41   ar
    10    41    42   ar
    11    42    43   ar
    12    25    26    1
    13    26    27   am
    14    27    28    2
    15    27    30    1
    16    30    31    1
    17    31    32    1
    18    32    33   ar
    19    33    34   ar
    20    34    35   ar
    21    35    36   ar
    22     1     4    1
    23     5     4    1
    24     5    17    1
    25    17    18    1
    26    18    19   ar
    27    19    20   ar
    28    20    21   ar
    29    21    22   ar
    30    22    23   ar
    31     5     6    1
    32     6     7   am
    33     7     8    2
    34     7    10    1
    35    10    11    1
    36    11    12    1
    37    12    13   ar
    38    13    14   ar
    39    14    15   ar
    40    15    16   ar
    41    43    38   ar
    42    36    32   ar
    43    23    18   ar
    44    16    12   ar
    45    26    29    1
    46     6     9    1
