@<TRIPOS>MOLECULE
*****
 29 33 0 0 0
SMALL
GASTEIGER

@<TRIPOS>ATOM
      1 C          61.3194   89.5816   10.3351 C.ar    1  UNL1        0.1391
      2 C          61.0541   89.5599   11.8112 C.ar    1  UNL1        0.0370
      3 C          62.0540   90.1488   12.7617 C.ar    1  UNL1        0.0044
      4 C          63.3192   90.7593   12.2360 C.ar    1  UNL1        0.0162
      5 C          63.5846   90.7810   10.7598 C.ar    1  UNL1        0.0044
      6 C          62.5847   90.1921    9.8093 C.ar    1  UNL1        0.0370
      7 C          64.3191   91.3482   13.1865 C.2     1  UNL1        0.0899
      8 N          65.0723   92.6305   12.9911 N.2     1  UNL1       -0.1519
      9 N          65.9601   92.8330   14.1831 N.2     1  UNL1       -0.1507
     10 C          65.7555   91.6758   15.1153 C.2     1  UNL1        0.1057
     11 C          64.7413   90.7581   14.4993 C.3     1  UNL1        0.1074
     12 C          64.2378   89.4756   15.0922 C.ar    1  UNL1       -0.0081
     13 C          63.3917   89.5030   16.3306 C.ar    1  UNL1        0.0171
     14 C          62.8881   88.2205   16.9234 C.ar    1  UNL1        0.0986
     15 N          63.2307   86.9105   16.2780 N.ar    1  UNL1       -0.2423
     16 C          64.0768   86.8830   15.0397 C.ar    1  UNL1        0.0986
     17 C          64.5803   88.1656   14.4469 C.ar    1  UNL1        0.0171
     18 O          60.3195   88.9927    9.3846 O.3     1  UNL1       -0.4690
     19 C          59.9627   87.5386    9.4772 C.3     1  UNL1        0.2508
     20 C          64.5587   82.8708   11.5600 C.ar    1  UNL1        0.0001
     21 C          63.7624   83.3375   12.7425 C.ar    1  UNL1        0.0015
     22 C          62.6840   84.3644   12.5624 C.ar    1  UNL1        0.0191
     23 C          62.4018   84.9246   11.1999 C.ar    1  UNL1        0.0810
     24 N          61.3233   85.9515   11.0198 N.ar    1  UNL1       -0.2460
     25 C          61.0411   86.5117    9.6573 C.ar    1  UNL1        0.1026
     26 C          61.8374   86.0451    8.4748 C.ar    1  UNL1        0.0184
     27 C          62.9158   85.0182    8.6549 C.ar    1  UNL1        0.0028
     28 C          63.1980   84.4580   10.0175 C.ar    1  UNL1        0.0177
     29 C          64.2765   83.4311   10.1975 C.ar    1  UNL1        0.0015
@<TRIPOS>BOND
     1    20    21   ar
     2    21    22   ar
     3    22    23   ar
     4    23    24   ar
     5    24    25   ar
     6    25    19    1
     7    19    18    1
     8    18     1    1
     9     1     2   ar
    10     2     3   ar
    11     3     4   ar
    12     4     7    1
    13     7     8    2
    14     8     9    1
    15     9    10    2
    16    10    11    1
    17    11    12    1
    18    12    13   ar
    19    13    14   ar
    20    14    15   ar
    21    15    16   ar
    22    16    17   ar
    23     4     5   ar
    24     5     6   ar
    25    25    26   ar
    26    26    27   ar
    27    27    28   ar
    28    28    29   ar
    29    29    20   ar
    30    28    23   ar
    31     6     1   ar
    32    11     7    1
    33    17    12   ar
@<TRIPOS>MOLECULE
*****
 29 33 0 0 0
SMALL
GASTEIGER

@<TRIPOS>ATOM
      1 C          62.3803   89.9029   10.5373 C.ar    1  UNL1        0.1391
      2 C          62.5885   89.3555   11.9182 C.ar    1  UNL1        0.0370
      3 C          63.5307   90.0415   12.8627 C.ar    1  UNL1        0.0044
      4 C          64.2645   91.2747   12.4262 C.ar    1  UNL1        0.0162
      5 C          64.0562   91.8221   11.0452 C.ar    1  UNL1        0.0044
      6 C          63.1141   91.1362   10.1007 C.ar    1  UNL1        0.0370
      7 C          65.2066   91.9606   13.3706 C.2     1  UNL1        0.0899
      8 N          65.1110   91.9589   14.8676 N.2     1  UNL1       -0.1519
      9 N          66.2550   92.7659   15.4060 N.2     1  UNL1       -0.1507
     10 C          67.0577   93.2664   14.2419 C.2     1  UNL1        0.1057
     11 C          66.4097   92.7687   12.9839 C.3     1  UNL1        0.1074
     12 C          66.8820   93.0327   11.5849 C.ar    1  UNL1       -0.0081
     13 C          67.7728   92.0427   10.8946 C.ar    1  UNL1        0.0171
     14 C          68.2451   92.3067    9.4957 C.ar    1  UNL1        0.0986
     15 N          67.8266   93.5607    8.7868 N.ar    1  UNL1       -0.2423
     16 C          66.9358   94.5507    9.4771 C.ar    1  UNL1        0.0986
     17 C          66.4635   94.2866   10.8761 C.ar    1  UNL1        0.0171
     18 O          61.4382   89.2169    9.5929 O.3     1  UNL1       -0.4690
     19 C          60.8086   87.9111    9.9782 C.3     1  UNL1        0.2508
     20 C          64.3323   82.2484   11.6419 C.ar    1  UNL1        0.0001
     21 C          63.6608   82.7874   12.8701 C.ar    1  UNL1        0.0015
     22 C          62.8217   84.0278   12.7830 C.ar    1  UNL1        0.0191
     23 C          62.6542   84.7291   11.4677 C.ar    1  UNL1        0.0810
     24 N          61.8151   85.9694   11.3806 N.ar    1  UNL1       -0.2460
     25 C          61.6476   86.6707   10.0653 C.ar    1  UNL1        0.1026
     26 C          62.3192   86.1317    8.8370 C.ar    1  UNL1        0.0184
     27 C          63.1583   84.8914    8.9241 C.ar    1  UNL1        0.0028
     28 C          63.3257   84.1901   10.2395 C.ar    1  UNL1        0.0177
     29 C          64.1648   82.9498   10.3266 C.ar    1  UNL1        0.0015
@<TRIPOS>BOND
     1    20    21   ar
     2    21    22   ar
     3    22    23   ar
     4    23    24   ar
     5    24    25   ar
     6    25    19    1
     7    19    18    1
     8    18     1    1
     9     1     2   ar
    10     2     3   ar
    11     3     4   ar
    12     4     7    1
    13     7     8    2
    14     8     9    1
    15     9    10    2
    16    10    11    1
    17    11    12    1
    18    12    13   ar
    19    13    14   ar
    20    14    15   ar
    21    15    16   ar
    22    16    17   ar
    23     4     5   ar
    24     5     6   ar
    25    25    26   ar
    26    26    27   ar
    27    27    28   ar
    28    28    29   ar
    29    29    20   ar
    30    28    23   ar
    31     6     1   ar
    32    11     7    1
    33    17    12   ar
@<TRIPOS>MOLECULE
*****
 29 33 0 0 0
SMALL
GASTEIGER

@<TRIPOS>ATOM
      1 C          61.7314   87.0994    9.7140 C.ar    1  UNL1        0.1391
      2 C          62.6184   86.1410    8.9759 C.ar    1  UNL1        0.0370
      3 C          63.0398   84.8565    9.6259 C.ar    1  UNL1        0.0044
      4 C          62.5742   84.5304   11.0141 C.ar    1  UNL1        0.0162
      5 C          61.6872   85.4888   11.7522 C.ar    1  UNL1        0.0044
      6 C          61.2658   86.7733   11.1022 C.ar    1  UNL1        0.0370
      7 C          62.9956   83.2459   11.6641 C.2     1  UNL1        0.0899
      8 N          63.1164   81.9131   10.9867 N.2     1  UNL1       -0.1519
      9 N          63.5656   80.9122   12.0096 N.2     1  UNL1       -0.1507
     10 C          63.7225   81.6264   13.3192 C.2     1  UNL1        0.1057
     11 C          63.3702   83.0688   13.1057 C.3     1  UNL1        0.1074
     12 C          63.3892   84.1450   14.1504 C.ar    1  UNL1       -0.0081
     13 C          62.3976   84.1156   15.2756 C.ar    1  UNL1        0.0171
     14 C          62.4165   85.1918   16.3202 C.ar    1  UNL1        0.0986
     15 N          63.4272   86.2974   16.2399 N.ar    1  UNL1       -0.2423
     16 C          64.4188   86.3267   15.1148 C.ar    1  UNL1        0.0986
     17 C          64.3998   85.2505   14.0701 C.ar    1  UNL1        0.0171
     18 O          61.3101   88.3839    9.0639 O.3     1  UNL1       -0.4690
     19 C          61.0478   89.5987    9.9039 C.3     1  UNL1        0.2508
     20 C          65.7415   91.8422   14.3968 C.ar    1  UNL1        0.0001
     21 C          64.8254   90.8747   15.0857 C.ar    1  UNL1        0.0015
     22 C          63.7034   90.2325   14.3249 C.ar    1  UNL1        0.0191
     23 C          63.4976   90.5578   12.8752 C.ar    1  UNL1        0.0810
     24 N          62.3756   89.9156   12.1144 N.ar    1  UNL1       -0.2460
     25 C          62.1698   90.2409   10.6647 C.ar    1  UNL1        0.1026
     26 C          63.0859   91.2085    9.9757 C.ar    1  UNL1        0.0184
     27 C          64.2079   91.8507   10.7365 C.ar    1  UNL1        0.0028
     28 C          64.4137   91.5253   12.1863 C.ar    1  UNL1        0.0177
     29 C          65.5356   92.1675   12.9471 C.ar    1  UNL1        0.0015
@<TRIPOS>BOND
     1    20    21   ar
     2    21    22   ar
     3    22    23   ar
     4    23    24   ar
     5    24    25   ar
     6    25    19    1
     7    19    18    1
     8    18     1    1
     9     1     2   ar
    10     2     3   ar
    11     3     4   ar
    12     4     7    1
    13     7     8    2
    14     8     9    1
    15     9    10    2
    16    10    11    1
    17    11    12    1
    18    12    13   ar
    19    13    14   ar
    20    14    15   ar
    21    15    16   ar
    22    16    17   ar
    23     4     5   ar
    24     5     6   ar
    25    25    26   ar
    26    26    27   ar
    27    27    28   ar
    28    28    29   ar
    29    29    20   ar
    30    28    23   ar
    31     6     1   ar
    32    11     7    1
    33    17    12   ar
@<TRIPOS>MOLECULE
*****
 29 33 0 0 0
SMALL
GASTEIGER

@<TRIPOS>ATOM
      1 C          63.4598   86.6961   16.1802 C.ar    1  UNL1        0.1391
      2 C          62.4461   85.6397   16.5062 C.ar    1  UNL1        0.0370
      3 C          62.3719   84.3907   15.6788 C.ar    1  UNL1        0.0044
      4 C          63.3115   84.1982   14.5255 C.ar    1  UNL1        0.0162
      5 C          64.3252   85.2547   14.1994 C.ar    1  UNL1        0.0044
      6 C          64.3994   86.5036   15.0268 C.ar    1  UNL1        0.0370
      7 C          63.2373   82.9492   13.6981 C.2     1  UNL1        0.0899
      8 N          63.4056   81.5465   14.2021 N.2     1  UNL1       -0.1519
      9 N          63.2541   80.6140   13.0369 N.2     1  UNL1       -0.1507
     10 C          62.9922   81.4404   11.8128 C.2     1  UNL1        0.1057
     11 C          62.9818   82.8836   12.2215 C.3     1  UNL1        0.1074
     12 C          62.7556   84.0556   11.3129 C.ar    1  UNL1       -0.0081
     13 C          61.9498   85.2283   11.7879 C.ar    1  UNL1        0.0171
     14 C          61.7236   86.4001   10.8795 C.ar    1  UNL1        0.0986
     15 N          62.3032   86.3995    9.4959 N.ar    1  UNL1       -0.2423
     16 C          63.1090   85.2268    9.0210 C.ar    1  UNL1        0.0986
     17 C          63.3352   84.0549    9.9295 C.ar    1  UNL1        0.0171
     18 O          63.5340   87.9451   17.0076 O.3     1  UNL1       -0.4690
     19 C          62.8623   89.1998   16.5335 C.3     1  UNL1        0.2508
     20 C          64.1721   91.8446   10.3254 C.ar    1  UNL1        0.0001
     21 C          62.9578   90.9682   10.2395 C.ar    1  UNL1        0.0015
     22 C          62.4530   90.2639   11.4640 C.ar    1  UNL1        0.0191
     23 C          63.1625   90.4361   12.7743 C.ar    1  UNL1        0.0810
     24 N          62.6576   89.7319   13.9987 N.ar    1  UNL1       -0.2460
     25 C          63.3671   89.9040   15.3090 C.ar    1  UNL1        0.1026
     26 C          64.5814   90.7805   15.3950 C.ar    1  UNL1        0.0184
     27 C          65.0862   91.4847   14.1705 C.ar    1  UNL1        0.0028
     28 C          64.3767   91.3125   12.8602 C.ar    1  UNL1        0.0177
     29 C          64.8815   92.0167   11.6358 C.ar    1  UNL1        0.0015
@<TRIPOS>BOND
     1    20    21   ar
     2    21    22   ar
     3    22    23   ar
     4    23    24   ar
     5    24    25   ar
     6    25    19    1
     7    19    18    1
     8    18     1    1
     9     1     2   ar
    10     2     3   ar
    11     3     4   ar
    12     4     7    1
    13     7     8    2
    14     8     9    1
    15     9    10    2
    16    10    11    1
    17    11    12    1
    18    12    13   ar
    19    13    14   ar
    20    14    15   ar
    21    15    16   ar
    22    16    17   ar
    23     4     5   ar
    24     5     6   ar
    25    25    26   ar
    26    26    27   ar
    27    27    28   ar
    28    28    29   ar
    29    29    20   ar
    30    28    23   ar
    31     6     1   ar
    32    11     7    1
    33    17    12   ar
@<TRIPOS>MOLECULE
*****
 29 33 0 0 0
SMALL
GASTEIGER

@<TRIPOS>ATOM
      1 C          63.1137   90.9576   12.0797 C.ar    1  UNL1        0.1391
      2 C          63.4880   90.9465   10.6272 C.ar    1  UNL1        0.0370
      3 C          62.6712   90.1563    9.6482 C.ar    1  UNL1        0.0044
      4 C          61.4800   89.3773   10.1217 C.ar    1  UNL1        0.0162
      5 C          61.1056   89.3884   11.5742 C.ar    1  UNL1        0.0044
      6 C          61.9224   90.1786   12.5532 C.ar    1  UNL1        0.0370
      7 C          60.6632   88.5871    9.1427 C.2     1  UNL1        0.0899
      8 N          59.6424   89.1432    8.1947 N.2     1  UNL1       -0.1519
      9 N          59.0720   88.0019    7.4059 N.2     1  UNL1       -0.1507
     10 C          59.7403   86.7405    7.8664 C.2     1  UNL1        0.1057
     11 C          60.7237   87.1022    8.9398 C.3     1  UNL1        0.1074
     12 C          61.6116   86.1466    9.6804 C.ar    1  UNL1       -0.0081
     13 C          62.6637   85.3740    8.9411 C.ar    1  UNL1        0.0171
     14 C          63.5516   84.4184    9.6816 C.ar    1  UNL1        0.0986
     15 N          63.3877   84.2354   11.1614 N.ar    1  UNL1       -0.2423
     16 C          62.3357   85.0080   11.9006 C.ar    1  UNL1        0.0986
     17 C          61.4477   85.9636   11.1600 C.ar    1  UNL1        0.0171
     18 O          63.9305   91.7478   13.0587 O.3     1  UNL1       -0.4690
     19 C          64.8389   91.0407   14.0205 C.3     1  UNL1        0.2508
     20 C          63.0205   85.0450   16.8481 C.ar    1  UNL1        0.0001
     21 C          63.7950   84.7803   15.5911 C.ar    1  UNL1        0.0015
     22 C          64.3135   85.9265   14.7742 C.ar    1  UNL1        0.0191
     23 C          64.0577   87.3374   15.2143 C.ar    1  UNL1        0.0810
     24 N          64.5762   88.4836   14.3974 N.ar    1  UNL1       -0.2460
     25 C          64.3203   89.8946   14.8374 C.ar    1  UNL1        0.1026
     26 C          63.5458   90.1594   16.0945 C.ar    1  UNL1        0.0184
     27 C          63.0273   89.0132   16.9114 C.ar    1  UNL1        0.0028
     28 C          63.2832   87.6022   16.4712 C.ar    1  UNL1        0.0177
     29 C          62.7646   86.4560   17.2882 C.ar    1  UNL1        0.0015
@<TRIPOS>BOND
     1    20    21   ar
     2    21    22   ar
     3    22    23   ar
     4    23    24   ar
     5    24    25   ar
     6    25    19    1
     7    19    18    1
     8    18     1    1
     9     1     2   ar
    10     2     3   ar
    11     3     4   ar
    12     4     7    1
    13     7     8    2
    14     8     9    1
    15     9    10    2
    16    10    11    1
    17    11    12    1
    18    12    13   ar
    19    13    14   ar
    20    14    15   ar
    21    15    16   ar
    22    16    17   ar
    23     4     5   ar
    24     5     6   ar
    25    25    26   ar
    26    26    27   ar
    27    27    28   ar
    28    28    29   ar
    29    29    20   ar
    30    28    23   ar
    31     6     1   ar
    32    11     7    1
    33    17    12   ar
@<TRIPOS>MOLECULE
*****
 29 33 0 0 0
SMALL
GASTEIGER

@<TRIPOS>ATOM
      1 C          63.3927   87.0674   16.3076 C.ar    1  UNL1        0.1391
      2 C          62.9569   88.4149   16.8018 C.ar    1  UNL1        0.0370
      3 C          63.4252   89.6573   16.1039 C.ar    1  UNL1        0.0044
      4 C          64.3294   89.5522   14.9116 C.ar    1  UNL1        0.0162
      5 C          64.7652   88.2046   14.4173 C.ar    1  UNL1        0.0044
      6 C          64.2968   86.9623   15.1153 C.ar    1  UNL1        0.0370
      7 C          64.7977   90.7946   14.2137 C.2     1  UNL1        0.0899
      8 N          65.8601   91.7336   14.7031 N.2     1  UNL1       -0.1519
      9 N          66.0049   92.8354   13.6956 N.2     1  UNL1       -0.1507
     10 C          65.0319   92.5774   12.5835 C.2     1  UNL1        0.1057
     11 C          64.2859   91.3161   12.9037 C.3     1  UNL1        0.1074
     12 C          63.2158   90.6868   12.0617 C.ar    1  UNL1       -0.0081
     13 C          63.3702   90.6317   10.5706 C.ar    1  UNL1        0.0171
     14 C          62.3002   90.0025    9.7286 C.ar    1  UNL1        0.0986
     15 N          61.0757   89.4283   10.3776 N.ar    1  UNL1       -0.2423
     16 C          60.9214   89.4834   11.8686 C.ar    1  UNL1        0.0986
     17 C          61.9914   90.1127   12.7106 C.ar    1  UNL1        0.0171
     18 O          62.9243   85.8251   17.0056 O.3     1  UNL1       -0.4690
     19 C          62.2179   84.7513   16.2321 C.3     1  UNL1        0.2508
     20 C          63.8669   83.7136    9.6401 C.ar    1  UNL1        0.0001
     21 C          62.8782   84.8382    9.7278 C.ar    1  UNL1        0.0015
     22 C          62.3507   85.2707   11.0637 C.ar    1  UNL1        0.0191
     23 C          62.8118   84.5785   12.3120 C.ar    1  UNL1        0.0810
     24 N          62.2843   85.0110   13.6479 N.ar    1  UNL1       -0.2460
     25 C          62.7455   84.3188   14.8962 C.ar    1  UNL1        0.1026
     26 C          63.7342   83.1941   14.8086 C.ar    1  UNL1        0.0184
     27 C          64.2617   82.7617   13.4726 C.ar    1  UNL1        0.0028
     28 C          63.8005   83.4539   12.2243 C.ar    1  UNL1        0.0177
     29 C          64.3280   83.0214   10.8884 C.ar    1  UNL1        0.0015
@<TRIPOS>BOND
     1    20    21   ar
     2    21    22   ar
     3    22    23   ar
     4    23    24   ar
     5    24    25   ar
     6    25    19    1
     7    19    18    1
     8    18     1    1
     9     1     2   ar
    10     2     3   ar
    11     3     4   ar
    12     4     7    1
    13     7     8    2
    14     8     9    1
    15     9    10    2
    16    10    11    1
    17    11    12    1
    18    12    13   ar
    19    13    14   ar
    20    14    15   ar
    21    15    16   ar
    22    16    17   ar
    23     4     5   ar
    24     5     6   ar
    25    25    26   ar
    26    26    27   ar
    27    27    28   ar
    28    28    29   ar
    29    29    20   ar
    30    28    23   ar
    31     6     1   ar
    32    11     7    1
    33    17    12   ar
@<TRIPOS>MOLECULE
*****
 29 33 0 0 0
SMALL
GASTEIGER

@<TRIPOS>ATOM
      1 C          63.4690   86.7242   16.1467 C.ar    1  UNL1        0.1391
      2 C          62.4527   85.6778   16.4964 C.ar    1  UNL1        0.0370
      3 C          62.3727   84.4125   15.6948 C.ar    1  UNL1        0.0044
      4 C          63.3089   84.1935   14.5435 C.ar    1  UNL1        0.0162
      5 C          64.3252   85.2399   14.1937 C.ar    1  UNL1        0.0044
      6 C          64.4052   86.5053   14.9953 C.ar    1  UNL1        0.0370
      7 C          63.2288   82.9282   13.7419 C.2     1  UNL1        0.0899
      8 N          63.3799   81.5348   14.2764 N.2     1  UNL1       -0.1519
      9 N          63.2281   80.5795   13.1299 N.2     1  UNL1       -0.1507
     10 C          62.9832   81.3825   11.8869 C.2     1  UNL1        0.1057
     11 C          62.9837   82.8341   12.2651 C.3     1  UNL1        0.1074
     12 C          62.7755   83.9887   11.3305 C.ar    1  UNL1       -0.0081
     13 C          63.3705   83.9561    9.9539 C.ar    1  UNL1        0.0171
     14 C          63.1623   85.1107    9.0193 C.ar    1  UNL1        0.0986
     15 N          62.3592   86.2980    9.4613 N.ar    1  UNL1       -0.2423
     16 C          61.7642   86.3307   10.8379 C.ar    1  UNL1        0.0986
     17 C          61.9724   85.1760   11.7725 C.ar    1  UNL1        0.0171
     18 O          63.5490   87.9895   16.9482 O.3     1  UNL1       -0.4690
     19 C          62.8835   89.2374   16.4483 C.3     1  UNL1        0.2508
     20 C          66.3405   93.3534   12.1637 C.ar    1  UNL1        0.0001
     21 C          66.7774   93.6318   13.5714 C.ar    1  UNL1        0.0015
     22 C          66.1734   92.8642   14.7098 C.ar    1  UNL1        0.0191
     23 C          65.1325   91.8184   14.4406 C.ar    1  UNL1        0.0810
     24 N          64.5284   91.0508   15.5790 N.ar    1  UNL1       -0.2460
     25 C          63.4875   90.0050   15.3098 C.ar    1  UNL1        0.1026
     26 C          63.0505   89.7266   13.9021 C.ar    1  UNL1        0.0184
     27 C          63.6546   90.4941   12.7637 C.ar    1  UNL1        0.0028
     28 C          64.6956   91.5400   13.0329 C.ar    1  UNL1        0.0177
     29 C          65.2996   92.3075   11.8945 C.ar    1  UNL1        0.0015
@<TRIPOS>BOND
     1    20    21   ar
     2    21    22   ar
     3    22    23   ar
     4    23    24   ar
     5    24    25   ar
     6    25    19    1
     7    19    18    1
     8    18     1    1
     9     1     2   ar
    10     2     3   ar
    11     3     4   ar
    12     4     7    1
    13     7     8    2
    14     8     9    1
    15     9    10    2
    16    10    11    1
    17    11    12    1
    18    12    13   ar
    19    13    14   ar
    20    14    15   ar
    21    15    16   ar
    22    16    17   ar
    23     4     5   ar
    24     5     6   ar
    25    25    26   ar
    26    26    27   ar
    27    27    28   ar
    28    28    29   ar
    29    29    20   ar
    30    28    23   ar
    31     6     1   ar
    32    11     7    1
    33    17    12   ar
@<TRIPOS>MOLECULE
*****
 29 33 0 0 0
SMALL
GASTEIGER

@<TRIPOS>ATOM
      1 C          63.2202   84.1650   10.8003 C.ar    1  UNL1        0.1391
      2 C          62.1719   84.8930   11.5883 C.ar    1  UNL1        0.0370
      3 C          61.3530   85.9664   10.9347 C.ar    1  UNL1        0.0044
      4 C          61.5823   86.3117    9.4932 C.ar    1  UNL1        0.0162
      5 C          62.6307   85.5837    8.7051 C.ar    1  UNL1        0.0044
      6 C          63.4496   84.5103    9.3587 C.ar    1  UNL1        0.0370
      7 C          60.7633   87.3851    8.8396 C.2     1  UNL1        0.0899
      8 N          59.7645   87.1848    7.7386 N.2     1  UNL1       -0.1519
      9 N          59.1833   88.5232    7.3908 N.2     1  UNL1       -0.1507
     10 C          59.8229   89.5507    8.2769 C.2     1  UNL1        0.1057
     11 C          60.7994   88.8473    9.1723 C.3     1  UNL1        0.1074
     12 C          61.6608   89.4929   10.2169 C.ar    1  UNL1       -0.0081
     13 C          61.4354   89.1877   11.6683 C.ar    1  UNL1        0.0171
     14 C          62.2967   89.8332   12.7129 C.ar    1  UNL1        0.0986
     15 N          63.3835   90.7839   12.3063 N.ar    1  UNL1       -0.2423
     16 C          63.6088   91.0890   10.8551 C.ar    1  UNL1        0.0986
     17 C          62.7474   90.4435    9.8104 C.ar    1  UNL1        0.0171
     18 O          64.0392   83.0916   11.4539 O.3     1  UNL1       -0.4690
     19 C          64.9062   83.4226   12.6324 C.3     1  UNL1        0.2508
     20 C          62.7055   87.7085   17.5352 C.ar    1  UNL1        0.0001
     21 C          63.4393   88.4943   16.4893 C.ar    1  UNL1        0.0015
     22 C          64.0262   87.7942   15.2995 C.ar    1  UNL1        0.0191
     23 C          63.8793   86.3084   15.1557 C.ar    1  UNL1        0.0810
     24 N          64.4662   85.6084   13.9659 N.ar    1  UNL1       -0.2460
     25 C          64.3193   84.1226   13.8221 C.ar    1  UNL1        0.1026
     26 C          63.5855   83.3367   14.8681 C.ar    1  UNL1        0.0184
     27 C          62.9986   84.0367   16.0579 C.ar    1  UNL1        0.0028
     28 C          63.1455   85.5226   16.2017 C.ar    1  UNL1        0.0177
     29 C          62.5586   86.2227   17.3914 C.ar    1  UNL1        0.0015
@<TRIPOS>BOND
     1    20    21   ar
     2    21    22   ar
     3    22    23   ar
     4    23    24   ar
     5    24    25   ar
     6    25    19    1
     7    19    18    1
     8    18     1    1
     9     1     2   ar
    10     2     3   ar
    11     3     4   ar
    12     4     7    1
    13     7     8    2
    14     8     9    1
    15     9    10    2
    16    10    11    1
    17    11    12    1
    18    12    13   ar
    19    13    14   ar
    20    14    15   ar
    21    15    16   ar
    22    16    17   ar
    23     4     5   ar
    24     5     6   ar
    25    25    26   ar
    26    26    27   ar
    27    27    28   ar
    28    28    29   ar
    29    29    20   ar
    30    28    23   ar
    31     6     1   ar
    32    11     7    1
    33    17    12   ar
@<TRIPOS>MOLECULE
*****
 29 33 0 0 0
SMALL
GASTEIGER

@<TRIPOS>ATOM
      1 C          64.1354   90.3511   12.6664 C.ar    1  UNL1        0.1391
      2 C          63.7656   91.1739   11.4680 C.ar    1  UNL1        0.0370
      3 C          62.7986   90.6335   10.4567 C.ar    1  UNL1        0.0044
      4 C          62.2014   89.2703   10.6437 C.ar    1  UNL1        0.0162
      5 C          62.5711   88.4475   11.8422 C.ar    1  UNL1        0.0044
      6 C          63.5382   88.9879   12.8536 C.ar    1  UNL1        0.0370
      7 C          61.2344   88.7299    9.6324 C.2     1  UNL1        0.0899
      8 N          60.2416   89.5327    8.8450 N.2     1  UNL1       -0.1519
      9 N          59.4840   88.5908    7.9568 N.2     1  UNL1       -0.1507
     10 C          60.0085   87.2059    8.1952 C.2     1  UNL1        0.1057
     11 C          61.0903   87.2919    9.2308 C.3     1  UNL1        0.1074
     12 C          61.8880   86.1417    9.7701 C.ar    1  UNL1       -0.0081
     13 C          62.8614   85.4229    8.8834 C.ar    1  UNL1        0.0171
     14 C          63.6590   84.2728    9.4226 C.ar    1  UNL1        0.0986
     15 N          63.4835   83.8414   10.8485 N.ar    1  UNL1       -0.2423
     16 C          62.5102   84.5601   11.7351 C.ar    1  UNL1        0.0986
     17 C          61.7125   85.7103   11.1958 C.ar    1  UNL1        0.0171
     18 O          65.1024   90.8915   13.6778 O.3     1  UNL1       -0.4690
     19 C          65.5133   92.3333   13.6269 C.3     1  UNL1        0.2508
     20 C          67.4866   95.9945    8.1541 C.ar    1  UNL1        0.0001
     21 C          66.5310   96.8111    8.9726 C.ar    1  UNL1        0.0015
     22 C          65.9453   96.2422   10.2308 C.ar    1  UNL1        0.0191
     23 C          66.3151   94.8567   10.6706 C.ar    1  UNL1        0.0810
     24 N          65.7293   94.2878   11.9289 N.ar    1  UNL1       -0.2460
     25 C          66.0991   92.9022   12.3687 C.ar    1  UNL1        0.1026
     26 C          67.0548   92.0855   11.5502 C.ar    1  UNL1        0.0184
     27 C          67.6405   92.6544   10.2919 C.ar    1  UNL1        0.0028
     28 C          67.2707   94.0401    9.8522 C.ar    1  UNL1        0.0177
     29 C          67.8564   94.6090    8.5939 C.ar    1  UNL1        0.0015
@<TRIPOS>BOND
     1    20    21   ar
     2    21    22   ar
     3    22    23   ar
     4    23    24   ar
     5    24    25   ar
     6    25    19    1
     7    19    18    1
     8    18     1    1
     9     1     2   ar
    10     2     3   ar
    11     3     4   ar
    12     4     7    1
    13     7     8    2
    14     8     9    1
    15     9    10    2
    16    10    11    1
    17    11    12    1
    18    12    13   ar
    19    13    14   ar
    20    14    15   ar
    21    15    16   ar
    22    16    17   ar
    23     4     5   ar
    24     5     6   ar
    25    25    26   ar
    26    26    27   ar
    27    27    28   ar
    28    28    29   ar
    29    29    20   ar
    30    28    23   ar
    31     6     1   ar
    32    11     7    1
    33    17    12   ar
