@<TRIPOS>MOLECULE
*****
 30 33 0 0 0
SMALL
GASTEIGER

@<TRIPOS>ATOM
      1 C          62.3051   88.3473   11.3350 C.ar    1  UNL1        0.0284
      2 C          63.1154   88.2180   12.5907 C.ar    1  UNL1        0.0027
      3 C          63.8606   89.4038   13.1278 C.ar    1  UNL1        0.0339
      4 C          63.7956   90.7189   12.4093 C.ar    1  UNL1        0.1311
      5 N          62.9852   90.8482   11.1536 N.ar    1  UNL1       -0.2035
      6 C          62.2400   89.6624   10.6164 C.ar    1  UNL1        0.2196
      7 F          61.4298   89.7917    9.3607 F       1  UNL1       -0.1835
      8 N          64.5408   91.9047   12.9465 N.pl3   1  UNL1       -0.3144
      9 H          64.0707   92.5754   13.4927 H       1  UNL1        0.1485
     10 C          66.0023   92.0686   12.6514 C.3     1  UNL1        0.1169
     11 C          66.4519   93.0528   11.6126 C.ar    1  UNL1        0.0168
     12 C          67.1522   92.5715   10.3765 C.ar    1  UNL1        0.0037
     13 C          67.6018   93.5558    9.3378 C.ar    1  UNL1        0.0574
     14 C          67.3511   95.0215    9.5351 C.ar    1  UNL1        0.2250
     15 N          66.6509   95.5028   10.7712 N.ar    1  UNL1       -0.2104
     16 C          66.2013   94.5185   11.8099 C.ar    1  UNL1        0.0994
     17 O          67.8008   96.0058    8.4963 O.3     1  UNL1       -0.4561
     18 C          66.7919   96.8545    7.7809 C.3     1  UNL1        0.2542
     19 C          61.5599   87.1615   10.7978 C.3     1  UNL1        0.0603
     20 C          63.6757   83.2592   12.8008 C.2     1  UNL1        0.1673
     21 C          64.3249   82.3644   11.7871 C.2     1  UNL1        0.2683
     22 N          64.2738   82.7200   10.3307 N.2     1  UNL1       -0.0278
     23 C          63.5736   83.9704    9.8881 C.2     1  UNL1        0.3719
     24 N          63.3617   84.5758    8.5322 N.2     1  UNL1       -0.0311
     25 C          62.5815   85.8449    8.7079 C.2     1  UNL1        0.2319
     26 C          62.3113   86.0239   10.1725 C.2     1  UNL1        0.0329
     27 C          62.9245   84.8653   10.9019 C.2     1  UNL1        0.0739
     28 C          62.9755   84.5097   12.3582 C.3     1  UNL1        0.1019
     29 C          62.8083   83.5845   15.2281 C.3     1  UNL1        0.2522
     30 O          63.7268   82.9037   14.2572 O.2     1  UNL1       -0.4715
@<TRIPOS>BOND
     1    29    30    1
     2    30    20    1
     3    20    21    2
     4    21    22    1
     5    22    23    2
     6    23    24    1
     7    24    25    2
     8    25    26    1
     9    26    19    1
    10    19     1    1
    11     1     2   ar
    12     2     3   ar
    13     3     4   ar
    14     4     8    1
    15     8    10    1
    16    10    11    1
    17    11    12   ar
    18    12    13   ar
    19    13    14   ar
    20    14    17    1
    21    17    18    1
    22    14    15   ar
    23    15    16   ar
    24     4     5   ar
    25     5     6   ar
    26     6     7    1
    27    26    27    2
    28    27    28    1
    29    28    20    1
    30    27    23    1
    31     6     1   ar
    32    16    11   ar
    33     8     9    1
@<TRIPOS>MOLECULE
*****
 30 33 0 0 0
SMALL
GASTEIGER

@<TRIPOS>ATOM
      1 C          63.7004   88.0867   15.7605 C.ar    1  UNL1        0.0284
      2 C          64.5466   87.5361   14.6511 C.ar    1  UNL1        0.0027
      3 C          64.7930   86.0594   14.5578 C.ar    1  UNL1        0.0339
      4 C          64.1930   85.1332   15.5738 C.ar    1  UNL1        0.1311
      5 N          63.3467   85.6839   16.6832 N.ar    1  UNL1       -0.2035
      6 C          63.1004   87.1606   16.7766 C.ar    1  UNL1        0.2196
      7 F          62.2541   87.7111   17.8859 F       1  UNL1       -0.1835
      8 N          64.4394   83.6566   15.4805 N.pl3   1  UNL1       -0.3144
      9 H          65.1267   83.2355   16.0458 H       1  UNL1        0.1485
     10 C          63.6385   82.8215   14.5259 C.3     1  UNL1        0.1169
     11 C          63.6154   83.1653   13.0661 C.ar    1  UNL1        0.0168
     12 C          62.6433   84.1848   12.5509 C.ar    1  UNL1        0.0037
     13 C          62.6202   84.5287   11.0910 C.ar    1  UNL1        0.0574
     14 C          63.5693   83.8530   10.1462 C.ar    1  UNL1        0.2250
     15 N          64.5415   82.8334   10.6614 N.ar    1  UNL1       -0.2104
     16 C          64.5646   82.4896   12.1213 C.ar    1  UNL1        0.0994
     17 O          63.5462   84.1968    8.6864 O.3     1  UNL1       -0.4561
     18 C          62.8338   85.4308    8.2177 C.3     1  UNL1        0.2542
     19 C          63.4540   89.5633   15.8538 C.3     1  UNL1        0.0603
     20 C          62.5686   90.2689   11.1173 C.2     1  UNL1        0.1673
     21 C          63.4560   91.3138   10.5085 C.2     1  UNL1        0.2683
     22 N          64.4797   92.0130   11.3529 N.2     1  UNL1       -0.0278
     23 C          64.6159   91.6675   12.8062 C.2     1  UNL1        0.3719
     24 N          65.5271   92.1845   13.8797 N.2     1  UNL1       -0.0311
     25 C          65.2027   91.4593   15.1520 C.2     1  UNL1        0.2319
     26 C          64.0911   90.4940   14.8648 C.2     1  UNL1        0.0329
     27 C          63.7285   90.6227   13.4150 C.2     1  UNL1        0.0739
     28 C          62.7048   89.9234   12.5705 C.3     1  UNL1        0.1019
     29 C          60.1306   90.0684   10.2421 C.3     1  UNL1        0.2522
     30 O          61.5449   89.5697   10.2728 O.2     1  UNL1       -0.4715
@<TRIPOS>BOND
     1    29    30    1
     2    30    20    1
     3    20    21    2
     4    21    22    1
     5    22    23    2
     6    23    24    1
     7    24    25    2
     8    25    26    1
     9    26    19    1
    10    19     1    1
    11     1     2   ar
    12     2     3   ar
    13     3     4   ar
    14     4     8    1
    15     8    10    1
    16    10    11    1
    17    11    12   ar
    18    12    13   ar
    19    13    14   ar
    20    14    17    1
    21    17    18    1
    22    14    15   ar
    23    15    16   ar
    24     4     5   ar
    25     5     6   ar
    26     6     7    1
    27    26    27    2
    28    27    28    1
    29    28    20    1
    30    27    23    1
    31     6     1   ar
    32    16    11   ar
    33     8     9    1
@<TRIPOS>MOLECULE
*****
 30 33 0 0 0
SMALL
GASTEIGER

@<TRIPOS>ATOM
      1 C          63.8476   87.8378   15.6101 C.ar    1  UNL1        0.0284
      2 C          64.6150   87.1693   14.5083 C.ar    1  UNL1        0.0027
      3 C          64.7478   85.6754   14.4861 C.ar    1  UNL1        0.0339
      4 C          64.1132   84.8498   15.5658 C.ar    1  UNL1        0.1311
      5 N          63.3458   85.5184   16.6677 N.ar    1  UNL1       -0.2035
      6 C          63.2130   87.0123   16.6899 C.ar    1  UNL1        0.2196
      7 F          62.4455   87.6807   17.7919 F       1  UNL1       -0.1835
      8 N          64.2461   83.3559   15.5436 N.pl3   1  UNL1       -0.3144
      9 H          64.8204   82.9029   16.2025 H       1  UNL1        0.1485
     10 C          63.5039   82.5521   14.5174 C.3     1  UNL1        0.1169
     11 C          63.5283   82.9693   13.0768 C.ar    1  UNL1        0.0168
     12 C          62.5387   83.9766   12.5708 C.ar    1  UNL1        0.0037
     13 C          62.5631   84.3937   11.1301 C.ar    1  UNL1        0.0574
     14 C          63.5771   83.8035   10.1955 C.ar    1  UNL1        0.2250
     15 N          64.5667   82.7961   10.7016 N.ar    1  UNL1       -0.2104
     16 C          64.5422   82.3791   12.1421 C.ar    1  UNL1        0.0994
     17 O          63.6015   84.2207    8.7549 O.3     1  UNL1       -0.4561
     18 C          62.8751   85.4590    8.3202 C.3     1  UNL1        0.2542
     19 C          63.7148   89.3317   15.6323 C.3     1  UNL1        0.0603
     20 C          67.1320   92.3279   13.8826 C.2     1  UNL1        0.1673
     21 C          66.7753   92.8980   12.5418 C.2     1  UNL1        0.2683
     22 N          65.4778   92.5237   11.8888 N.2     1  UNL1       -0.0278
     23 C          64.5370   91.5794   12.5766 C.2     1  UNL1        0.3719
     24 N          63.1977   91.0315   12.1814 N.2     1  UNL1       -0.0311
     25 C          62.7267   90.1228   13.2780 C.2     1  UNL1        0.2319
     26 C          63.7748   90.1091   14.3509 C.2     1  UNL1        0.0329
     27 C          64.8937   91.0094   13.9174 C.2     1  UNL1        0.0739
     28 C          66.1912   91.3836   14.5704 C.3     1  UNL1        0.1019
     29 C          68.4360   93.6319   15.7126 C.3     1  UNL1        0.2522
     30 O          68.4295   92.7022   14.5356 O.2     1  UNL1       -0.4715
@<TRIPOS>BOND
     1    29    30    1
     2    30    20    1
     3    20    21    2
     4    21    22    1
     5    22    23    2
     6    23    24    1
     7    24    25    2
     8    25    26    1
     9    26    19    1
    10    19     1    1
    11     1     2   ar
    12     2     3   ar
    13     3     4   ar
    14     4     8    1
    15     8    10    1
    16    10    11    1
    17    11    12   ar
    18    12    13   ar
    19    13    14   ar
    20    14    17    1
    21    17    18    1
    22    14    15   ar
    23    15    16   ar
    24     4     5   ar
    25     5     6   ar
    26     6     7    1
    27    26    27    2
    28    27    28    1
    29    28    20    1
    30    27    23    1
    31     6     1   ar
    32    16    11   ar
    33     8     9    1
@<TRIPOS>MOLECULE
*****
 30 33 0 0 0
SMALL
GASTEIGER

@<TRIPOS>ATOM
      1 C          62.9562   84.6564   10.3908 C.ar    1  UNL1        0.0284
      2 C          62.1599   85.2425   11.5187 C.ar    1  UNL1        0.0027
      3 C          62.3735   84.7541   12.9208 C.ar    1  UNL1        0.0339
      4 C          63.3835   83.6796   13.1950 C.ar    1  UNL1        0.1311
      5 N          64.1800   83.0935   12.0670 N.ar    1  UNL1       -0.2035
      6 C          63.9663   83.5818   10.6649 C.ar    1  UNL1        0.2196
      7 F          64.7628   82.9957    9.5371 F       1  UNL1       -0.1835
      8 N          63.5972   83.1913   14.5971 N.pl3   1  UNL1       -0.3144
      9 H          63.2338   82.3197   14.8755 H       1  UNL1        0.1485
     10 C          64.3644   84.0310   15.5750 C.3     1  UNL1        0.1169
     11 C          64.0639   85.4949   15.7041 C.ar    1  UNL1        0.0168
     12 C          64.6926   86.4757   14.7594 C.ar    1  UNL1        0.0037
     13 C          64.3922   87.9397   14.8884 C.ar    1  UNL1        0.0574
     14 C          63.4630   88.4228   15.9623 C.ar    1  UNL1        0.2250
     15 N          62.8343   87.4418   16.9071 N.ar    1  UNL1       -0.2104
     16 C          63.1347   85.9780   16.7780 C.ar    1  UNL1        0.0994
     17 O          63.1626   89.8867   16.0914 O.3     1  UNL1       -0.4561
     18 C          63.9142   90.8828   15.2590 C.3     1  UNL1        0.2542
     19 C          62.7426   85.1447    8.9887 C.3     1  UNL1        0.0603
     20 C          62.0092   89.6690   10.6346 C.2     1  UNL1        0.1673
     21 C          60.7706   90.2999   10.0710 C.2     1  UNL1        0.2683
     22 N          59.9118   89.5360    9.1072 N.2     1  UNL1       -0.0278
     23 C          60.2916   88.1412    8.7070 C.2     1  UNL1        0.3719
     24 N          59.6459   87.1508    7.7839 N.2     1  UNL1       -0.0311
     25 C          60.4855   85.9077    7.7771 C.2     1  UNL1        0.2319
     26 C          61.6501   86.1299    8.6959 C.2     1  UNL1        0.0329
     27 C          61.5302   87.5103    9.2707 C.2     1  UNL1        0.0739
     28 C          62.3890   88.2742   10.2345 C.3     1  UNL1        0.1019
     29 C          63.8637   91.4315   11.0870 C.3     1  UNL1        0.2522
     30 O          62.8680   90.4329   11.5984 O.2     1  UNL1       -0.4715
@<TRIPOS>BOND
     1    29    30    1
     2    30    20    1
     3    20    21    2
     4    21    22    1
     5    22    23    2
     6    23    24    1
     7    24    25    2
     8    25    26    1
     9    26    19    1
    10    19     1    1
    11     1     2   ar
    12     2     3   ar
    13     3     4   ar
    14     4     8    1
    15     8    10    1
    16    10    11    1
    17    11    12   ar
    18    12    13   ar
    19    13    14   ar
    20    14    17    1
    21    17    18    1
    22    14    15   ar
    23    15    16   ar
    24     4     5   ar
    25     5     6   ar
    26     6     7    1
    27    26    27    2
    28    27    28    1
    29    28    20    1
    30    27    23    1
    31     6     1   ar
    32    16    11   ar
    33     8     9    1
@<TRIPOS>MOLECULE
*****
 30 33 0 0 0
SMALL
GASTEIGER

@<TRIPOS>ATOM
      1 C          61.9269   86.7917   10.5491 C.ar    1  UNL1        0.0284
      2 C          62.6627   87.4197   11.6954 C.ar    1  UNL1        0.0027
      3 C          62.8610   88.9060   11.7352 C.ar    1  UNL1        0.0339
      4 C          62.3236   89.7643   10.6286 C.ar    1  UNL1        0.1311
      5 N          61.5878   89.1362    9.4822 N.ar    1  UNL1       -0.2035
      6 C          61.3894   87.6499    9.4424 C.ar    1  UNL1        0.2196
      7 F          60.6536   87.0219    8.2960 F       1  UNL1       -0.1835
      8 N          62.5220   91.2506   10.6684 N.pl3   1  UNL1       -0.3144
      9 H          61.7965   91.8357   10.9856 H       1  UNL1        0.1485
     10 C          63.8256   91.8454   10.2249 C.3     1  UNL1        0.1169
     11 C          64.9167   92.0907   11.2245 C.ar    1  UNL1        0.0168
     12 C          64.6792   91.8085   12.6784 C.ar    1  UNL1        0.0037
     13 C          65.7703   92.0539   13.6781 C.ar    1  UNL1        0.0574
     14 C          67.0989   92.5815   13.2239 C.ar    1  UNL1        0.2250
     15 N          67.3364   92.8638   11.7699 N.ar    1  UNL1       -0.2104
     16 C          66.2453   92.6184   10.7703 C.ar    1  UNL1        0.0994
     17 O          68.1900   92.8269   14.2235 O.3     1  UNL1       -0.4561
     18 C          67.8624   93.4251   15.5595 C.3     1  UNL1        0.2542
     19 C          61.7285   85.3054   10.5093 C.3     1  UNL1        0.0603
     20 C          62.9031   84.0717   15.0716 C.2     1  UNL1        0.1673
     21 C          64.0558   83.1143   15.1374 C.2     1  UNL1        0.2683
     22 N          64.7127   82.6434   13.8737 N.2     1  UNL1       -0.0278
     23 C          64.2168   83.1299   12.5443 C.2     1  UNL1        0.3719
     24 N          64.6614   82.8427   11.1408 N.2     1  UNL1       -0.0311
     25 C          63.7834   83.6226   10.2076 C.2     1  UNL1        0.2319
     26 C          62.7962   84.3919   11.0344 C.2     1  UNL1        0.0329
     27 C          63.0641   84.0874   12.4786 C.2     1  UNL1        0.0739
     28 C          62.4072   84.5583   13.7422 C.3     1  UNL1        0.1019
     29 C          62.6350   85.8608   16.9364 C.3     1  UNL1        0.2522
     30 O          62.2462   84.5427   16.3352 O.2     1  UNL1       -0.4715
@<TRIPOS>BOND
     1    29    30    1
     2    30    20    1
     3    20    21    2
     4    21    22    1
     5    22    23    2
     6    23    24    1
     7    24    25    2
     8    25    26    1
     9    26    19    1
    10    19     1    1
    11     1     2   ar
    12     2     3   ar
    13     3     4   ar
    14     4     8    1
    15     8    10    1
    16    10    11    1
    17    11    12   ar
    18    12    13   ar
    19    13    14   ar
    20    14    17    1
    21    17    18    1
    22    14    15   ar
    23    15    16   ar
    24     4     5   ar
    25     5     6   ar
    26     6     7    1
    27    26    27    2
    28    27    28    1
    29    28    20    1
    30    27    23    1
    31     6     1   ar
    32    16    11   ar
    33     8     9    1
@<TRIPOS>MOLECULE
*****
 30 33 0 0 0
SMALL
GASTEIGER

@<TRIPOS>ATOM
      1 C          62.6959   85.0009    9.7510 C.ar    1  UNL1        0.0284
      2 C          61.9651   85.5682   10.9317 C.ar    1  UNL1        0.0027
      3 C          60.9873   86.6895   10.7407 C.ar    1  UNL1        0.0339
      4 C          60.7401   87.2436    9.3689 C.ar    1  UNL1        0.1311
      5 N          61.4710   86.6763    8.1881 N.ar    1  UNL1       -0.2035
      6 C          62.4488   85.5550    8.3791 C.ar    1  UNL1        0.2196
      7 F          63.1796   84.9878    7.1983 F       1  UNL1       -0.1835
      8 N          59.7623   88.3648    9.1778 N.pl3   1  UNL1       -0.3144
      9 H          58.8586   88.1769    8.8353 H       1  UNL1        0.1485
     10 C          60.1613   89.7724    9.5085 C.3     1  UNL1        0.1169
     11 C          61.2493   90.0282   10.5089 C.ar    1  UNL1        0.0168
     12 C          62.5493   90.6310   10.0656 C.ar    1  UNL1        0.0037
     13 C          63.6373   90.8867   11.0660 C.ar    1  UNL1        0.0574
     14 C          63.4254   90.5396   12.5099 C.ar    1  UNL1        0.2250
     15 N          62.1253   89.9367   12.9532 N.ar    1  UNL1       -0.2104
     16 C          61.0373   89.6811   11.9528 C.ar    1  UNL1        0.0994
     17 O          64.5134   90.7953   13.5103 O.3     1  UNL1       -0.4561
     18 C          65.4665   91.9355   13.3067 C.3     1  UNL1        0.2542
     19 C          63.6737   83.8797    9.9421 C.3     1  UNL1        0.0603
     20 C          64.1863   84.6713   14.7198 C.2     1  UNL1        0.1673
     21 C          63.9475   83.4402   15.5428 C.2     1  UNL1        0.2683
     22 N          63.5927   82.1465   14.8716 N.2     1  UNL1       -0.0278
     23 C          63.4766   82.0839   13.3775 C.2     1  UNL1        0.3719
     24 N          63.1443   80.9588   12.4428 N.2     1  UNL1       -0.0311
     25 C          63.1776   81.4945   11.0421 C.2     1  UNL1        0.2319
     26 C          63.5306   82.9508   11.1111 C.2     1  UNL1        0.0329
     27 C          63.7154   83.3150   12.5545 C.2     1  UNL1        0.0739
     28 C          64.0703   84.6087   13.2257 C.3     1  UNL1        0.1019
     29 C          64.3938   87.2601   14.6488 C.3     1  UNL1        0.2522
     30 O          64.5412   85.9650   15.3910 O.2     1  UNL1       -0.4715
@<TRIPOS>BOND
     1    29    30    1
     2    30    20    1
     3    20    21    2
     4    21    22    1
     5    22    23    2
     6    23    24    1
     7    24    25    2
     8    25    26    1
     9    26    19    1
    10    19     1    1
    11     1     2   ar
    12     2     3   ar
    13     3     4   ar
    14     4     8    1
    15     8    10    1
    16    10    11    1
    17    11    12   ar
    18    12    13   ar
    19    13    14   ar
    20    14    17    1
    21    17    18    1
    22    14    15   ar
    23    15    16   ar
    24     4     5   ar
    25     5     6   ar
    26     6     7    1
    27    26    27    2
    28    27    28    1
    29    28    20    1
    30    27    23    1
    31     6     1   ar
    32    16    11   ar
    33     8     9    1
@<TRIPOS>MOLECULE
*****
 30 33 0 0 0
SMALL
GASTEIGER

@<TRIPOS>ATOM
      1 C          63.0027   84.7329    9.7110 C.ar    1  UNL1        0.0284
      2 C          64.0266   83.6587    9.4928 C.ar    1  UNL1        0.0027
      3 C          64.2088   82.5772   10.5160 C.ar    1  UNL1        0.0339
      4 C          63.3671   82.5698   11.7576 C.ar    1  UNL1        0.1311
      5 N          62.3431   83.6441   11.9758 N.ar    1  UNL1       -0.2035
      6 C          62.1609   84.7257   10.9526 C.ar    1  UNL1        0.2196
      7 F          61.1370   85.7998   11.1709 F       1  UNL1       -0.1835
      8 N          63.5493   81.4883   12.7808 N.pl3   1  UNL1       -0.3144
      9 H          63.3934   80.5476   12.5359 H       1  UNL1        0.1485
     10 C          63.9690   81.8400   14.1773 C.3     1  UNL1        0.1169
     11 C          63.8797   83.2601   14.6520 C.ar    1  UNL1        0.0168
     12 C          64.9885   84.2235   14.3485 C.ar    1  UNL1        0.0037
     13 C          64.8992   85.6436   14.8232 C.ar    1  UNL1        0.0574
     14 C          63.7010   86.1003   15.6015 C.ar    1  UNL1        0.2250
     15 N          62.5921   85.1368   15.9050 N.ar    1  UNL1       -0.2104
     16 C          62.6814   83.7168   15.4303 C.ar    1  UNL1        0.0994
     17 O          63.6117   87.5204   16.0762 O.3     1  UNL1       -0.4561
     18 C          62.9091   87.8383   17.3628 C.3     1  UNL1        0.2542
     19 C          62.8205   85.8145    8.6878 C.3     1  UNL1        0.0603
     20 C          62.2418   90.0203   11.0737 C.2     1  UNL1        0.1673
     21 C          60.8793   90.6169   10.8798 C.2     1  UNL1        0.2683
     22 N          59.8686   89.9155   10.0215 N.2     1  UNL1       -0.0278
     23 C          60.2204   88.6175    9.3572 C.2     1  UNL1        0.3719
     24 N          59.4377   87.7040    8.4612 N.2     1  UNL1       -0.0311
     25 C          60.3164   86.5428    8.1014 C.2     1  UNL1        0.2319
     26 C          61.6422   86.7386    8.7750 C.2     1  UNL1        0.0329
     27 C          61.5829   88.0209    9.5511 C.2     1  UNL1        0.0739
     28 C          62.5936   88.7223   10.4094 C.3     1  UNL1        0.1019
     29 C          63.7201   90.0889   13.2090 C.3     1  UNL1        0.2522
     30 O          63.2524   90.7216   11.9320 O.2     1  UNL1       -0.4715
@<TRIPOS>BOND
     1    29    30    1
     2    30    20    1
     3    20    21    2
     4    21    22    1
     5    22    23    2
     6    23    24    1
     7    24    25    2
     8    25    26    1
     9    26    19    1
    10    19     1    1
    11     1     2   ar
    12     2     3   ar
    13     3     4   ar
    14     4     8    1
    15     8    10    1
    16    10    11    1
    17    11    12   ar
    18    12    13   ar
    19    13    14   ar
    20    14    17    1
    21    17    18    1
    22    14    15   ar
    23    15    16   ar
    24     4     5   ar
    25     5     6   ar
    26     6     7    1
    27    26    27    2
    28    27    28    1
    29    28    20    1
    30    27    23    1
    31     6     1   ar
    32    16    11   ar
    33     8     9    1
@<TRIPOS>MOLECULE
*****
 30 33 0 0 0
SMALL
GASTEIGER

@<TRIPOS>ATOM
      1 C          63.7628   84.4098   14.6682 C.ar    1  UNL1        0.0284
      2 C          64.7232   85.5502   14.5036 C.ar    1  UNL1        0.0027
      3 C          64.5128   86.8240   15.2672 C.ar    1  UNL1        0.0339
      4 C          63.3421   86.9575   16.1953 C.ar    1  UNL1        0.1311
      5 N          62.3817   85.8170   16.3599 N.ar    1  UNL1       -0.2035
      6 C          62.5920   84.5432   15.5964 C.ar    1  UNL1        0.2196
      7 F          61.6316   83.4028   15.7610 F       1  UNL1       -0.1835
      8 N          63.1317   88.2314   16.9589 N.pl3   1  UNL1       -0.3144
      9 H          63.2134   88.2364   17.9400 H       1  UNL1        0.1485
     10 C          62.7969   89.4975   16.2276 C.3     1  UNL1        0.1169
     11 C          63.8828   90.4717   15.8788 C.ar    1  UNL1        0.0168
     12 C          64.6725   90.2942   14.6159 C.ar    1  UNL1        0.0037
     13 C          65.7584   91.2684   14.2671 C.ar    1  UNL1        0.0574
     14 C          66.0547   92.4202   15.1812 C.ar    1  UNL1        0.2250
     15 N          65.2650   92.5977   16.4441 N.ar    1  UNL1       -0.2104
     16 C          64.1792   91.6235   16.7929 C.ar    1  UNL1        0.0994
     17 O          67.1407   93.3943   14.8324 O.3     1  UNL1       -0.4561
     18 C          68.3742   93.4782   15.6816 C.3     1  UNL1        0.2542
     19 C          63.9732   83.1359   13.9046 C.3     1  UNL1        0.0603
     20 C          61.8191   86.0619   10.6620 C.2     1  UNL1        0.1673
     21 C          62.1801   85.7267    9.2453 C.2     1  UNL1        0.2683
     22 N          63.1159   84.5899    8.9587 N.2     1  UNL1       -0.0278
     23 C          63.6905   83.7884   10.0889 C.2     1  UNL1        0.3719
     24 N          64.6314   82.6204   10.1143 N.2     1  UNL1       -0.0311
     25 C          64.8518   82.2339   11.5468 C.2     1  UNL1        0.2319
     26 C          64.0472   83.1629   12.4067 C.2     1  UNL1        0.0329
     27 C          63.3294   84.1236   11.5056 C.2     1  UNL1        0.0739
     28 C          62.3937   85.2604   11.7922 C.3     1  UNL1        0.1019
     29 C          60.1354   87.8556    9.8266 C.3     1  UNL1        0.2522
     30 O          60.8833   87.1987   10.9486 O.2     1  UNL1       -0.4715
@<TRIPOS>BOND
     1    29    30    1
     2    30    20    1
     3    20    21    2
     4    21    22    1
     5    22    23    2
     6    23    24    1
     7    24    25    2
     8    25    26    1
     9    26    19    1
    10    19     1    1
    11     1     2   ar
    12     2     3   ar
    13     3     4   ar
    14     4     8    1
    15     8    10    1
    16    10    11    1
    17    11    12   ar
    18    12    13   ar
    19    13    14   ar
    20    14    17    1
    21    17    18    1
    22    14    15   ar
    23    15    16   ar
    24     4     5   ar
    25     5     6   ar
    26     6     7    1
    27    26    27    2
    28    27    28    1
    29    28    20    1
    30    27    23    1
    31     6     1   ar
    32    16    11   ar
    33     8     9    1
@<TRIPOS>MOLECULE
*****
 30 33 0 0 0
SMALL
GASTEIGER

@<TRIPOS>ATOM
      1 C          61.9899   87.4301   11.1580 C.ar    1  UNL1        0.0284
      2 C          63.1850   87.4143   12.0642 C.ar    1  UNL1        0.0027
      3 C          63.5296   88.6301   12.8724 C.ar    1  UNL1        0.0339
      4 C          62.6790   89.8617   12.7743 C.ar    1  UNL1        0.1311
      5 N          61.4839   89.8775   11.8679 N.ar    1  UNL1       -0.2035
      6 C          61.1393   88.6617   11.0598 C.ar    1  UNL1        0.2196
      7 F          59.9441   88.6775   10.1535 F       1  UNL1       -0.1835
      8 N          63.0236   91.0775   13.5824 N.pl3   1  UNL1       -0.3144
      9 H          62.8065   91.9744   13.2393 H       1  UNL1        0.1485
     10 C          63.6990   90.9268   14.9132 C.3     1  UNL1        0.1169
     11 C          65.0820   91.4701   15.1182 C.ar    1  UNL1        0.0168
     12 C          66.1663   91.1532   14.1314 C.ar    1  UNL1        0.0037
     13 C          67.5493   91.6965   14.3364 C.ar    1  UNL1        0.0574
     14 C          67.8481   92.5569   15.5283 C.ar    1  UNL1        0.2250
     15 N          66.7637   92.8739   16.5151 N.ar    1  UNL1       -0.2104
     16 C          65.3808   92.3305   16.3101 C.ar    1  UNL1        0.0994
     17 O          69.2311   93.1003   15.7333 O.3     1  UNL1       -0.4561
     18 C          69.4243   94.5444   16.0897 C.3     1  UNL1        0.2542
     19 C          61.6453   86.2143   10.3498 C.3     1  UNL1        0.0603
     20 C          62.9780   83.2748   13.9967 C.2     1  UNL1        0.1673
     21 C          63.9172   82.1909   13.5572 C.2     1  UNL1        0.2683
     22 N          64.3436   82.1044   12.1217 N.2     1  UNL1       -0.0278
     23 C          63.8308   83.1018   11.1256 C.2     1  UNL1        0.3719
     24 N          64.0736   83.2671    9.6547 N.2     1  UNL1       -0.0311
     25 C          63.2844   84.4532    9.1850 C.2     1  UNL1        0.2319
     26 C          62.5539   85.0209   10.3657 C.2     1  UNL1        0.0329
     27 C          62.8916   84.1857   11.5651 C.2     1  UNL1        0.0739
     28 C          62.4652   84.2722   13.0006 C.3     1  UNL1        0.1019
     29 C          62.4023   84.7005   16.0908 C.3     1  UNL1        0.2522
     30 O          62.5516   83.3612   15.4322 O.2     1  UNL1       -0.4715
@<TRIPOS>BOND
     1    29    30    1
     2    30    20    1
     3    20    21    2
     4    21    22    1
     5    22    23    2
     6    23    24    1
     7    24    25    2
     8    25    26    1
     9    26    19    1
    10    19     1    1
    11     1     2   ar
    12     2     3   ar
    13     3     4   ar
    14     4     8    1
    15     8    10    1
    16    10    11    1
    17    11    12   ar
    18    12    13   ar
    19    13    14   ar
    20    14    17    1
    21    17    18    1
    22    14    15   ar
    23    15    16   ar
    24     4     5   ar
    25     5     6   ar
    26     6     7    1
    27    26    27    2
    28    27    28    1
    29    28    20    1
    30    27    23    1
    31     6     1   ar
    32    16    11   ar
    33     8     9    1
