@<TRIPOS>MOLECULE
*****
 22 24 0 0 0
SMALL
GASTEIGER

@<TRIPOS>ATOM
      1 C          62.4411   83.7880   14.3827 C.2     1  UNL1       -0.0420
      2 C          62.8516   84.0507   12.9641 C.2     1  UNL1       -0.0240
      3 C          62.8988   82.7356   12.2441 C.ar    1  UNL1       -0.0077
      4 C          63.2397   82.3784   10.8277 C.ar    1  UNL1        0.0017
      5 C          63.1994   80.9459   10.3850 C.ar    1  UNL1        0.0296
      6 C          62.8181   79.8704   11.3587 C.ar    1  UNL1        0.1398
      7 F          62.7777   78.4378   10.9159 F       1  UNL1       -0.2042
      8 C          62.4771   80.2276   12.7751 C.ar    1  UNL1        0.0257
      9 C          62.5175   81.6602   13.2178 C.ar    1  UNL1       -0.0162
     10 C          62.2346   82.3106   14.5395 C.3     1  UNL1        0.0481
     11 C          62.2675   84.8214   15.4560 C.3     1  UNL1        0.0394
     12 C          63.4690   85.4944   16.0505 C.3     1  UNL1        0.0765
     13 C          62.9965   87.8445   17.0524 C.3     1  UNL1        0.0897
     14 N          63.6034   86.9867   15.9818 N.3     1  UNL1       -0.2700
     15 C          64.3446   87.6214   14.8427 C.3     1  UNL1        0.0897
     16 C          63.1606   85.3928   12.3697 C.3     1  UNL1        0.0730
     17 C          62.2757   85.9611   11.3000 C.ar    1  UNL1        0.0825
     18 C          62.4822   85.5665    9.8677 C.ar    1  UNL1        0.1139
     19 N          61.5974   86.1348    8.7981 N.ar    1  UNL1       -0.2394
     20 C          60.5060   87.0977    9.1609 C.ar    1  UNL1        0.1195
     21 C          60.2994   87.4922   10.5932 C.ar    1  UNL1        0.1191
     22 N          61.1842   86.9240   11.6628 N.ar    1  UNL1       -0.2446
@<TRIPOS>BOND
     1    13    14    1
     2    14    15    1
     3    14    12    1
     4    12    11    1
     5    11     1    1
     6     1     2    2
     7     2    16    1
     8    16    17    1
     9    17    18   ar
    10    18    19   ar
    11    19    20   ar
    12    20    21   ar
    13    21    22   ar
    14     2     3    1
    15     3     4   ar
    16     4     5   ar
    17     5     6   ar
    18     6     7    1
    19     6     8   ar
    20     8     9   ar
    21     9    10    1
    22    10     1    1
    23    22    17   ar
    24     9     3   ar
@<TRIPOS>MOLECULE
*****
 22 24 0 0 0
SMALL
GASTEIGER

@<TRIPOS>ATOM
      1 C          63.2697   88.2103   12.6279 C.2     1  UNL1       -0.0420
      2 C          62.5582   89.2552   11.8205 C.2     1  UNL1       -0.0240
      3 C          61.8170   88.5624   10.7157 C.ar    1  UNL1       -0.0077
      4 C          60.9440   89.0826    9.6124 C.ar    1  UNL1        0.0017
      5 C          60.3245   88.1296    8.6337 C.ar    1  UNL1        0.0296
      6 C          60.5778   86.6564    8.7583 C.ar    1  UNL1        0.1398
      7 F          59.9582   85.7034    7.7795 F       1  UNL1       -0.2042
      8 C          61.4508   86.1362    9.8616 C.ar    1  UNL1        0.0257
      9 C          62.0703   87.0892   10.8403 C.ar    1  UNL1       -0.0162
     10 C          62.9682   86.8716   12.0221 C.3     1  UNL1        0.0481
     11 C          64.1314   88.4601   13.8300 C.3     1  UNL1        0.0394
     12 C          64.3286   87.3777   14.8495 C.3     1  UNL1        0.0765
     13 C          63.1798   86.1074   16.8031 C.3     1  UNL1        0.0897
     14 N          63.5396   87.3962   16.1251 N.3     1  UNL1       -0.2700
     15 C          63.1103   88.7033   16.7226 C.3     1  UNL1        0.0897
     16 C          62.5835   90.7335   12.0734 C.3     1  UNL1        0.0730
     17 C          63.8792   91.4855   11.9967 C.ar    1  UNL1        0.0825
     18 C          64.4470   91.8671   10.6618 C.ar    1  UNL1        0.1139
     19 N          65.7426   92.6190   10.5849 N.ar    1  UNL1       -0.2394
     20 C          66.4705   92.9894   11.8431 C.ar    1  UNL1        0.1195
     21 C          65.9027   92.6078   13.1781 C.ar    1  UNL1        0.1191
     22 N          64.6071   91.8559   13.2549 N.ar    1  UNL1       -0.2446
@<TRIPOS>BOND
     1    13    14    1
     2    14    15    1
     3    14    12    1
     4    12    11    1
     5    11     1    1
     6     1     2    2
     7     2    16    1
     8    16    17    1
     9    17    18   ar
    10    18    19   ar
    11    19    20   ar
    12    20    21   ar
    13    21    22   ar
    14     2     3    1
    15     3     4   ar
    16     4     5   ar
    17     5     6   ar
    18     6     7    1
    19     6     8   ar
    20     8     9   ar
    21     9    10    1
    22    10     1    1
    23    22    17   ar
    24     9     3   ar
@<TRIPOS>MOLECULE
*****
 22 24 0 0 0
SMALL
GASTEIGER

@<TRIPOS>ATOM
      1 C          65.3580   91.4694   14.1339 C.2     1  UNL1       -0.0420
      2 C          65.1698   92.1505   12.8108 C.2     1  UNL1       -0.0240
      3 C          64.2359   91.3139   11.9874 C.ar    1  UNL1       -0.0077
      4 C          63.6894   91.4884   10.6015 C.ar    1  UNL1        0.0017
      5 C          62.7539   90.4647   10.0298 C.ar    1  UNL1        0.0296
      6 C          62.3649   89.2665   10.8441 C.ar    1  UNL1        0.1398
      7 F          61.4294   88.2428   10.2723 F       1  UNL1       -0.2042
      8 C          62.9113   89.0921   12.2300 C.ar    1  UNL1        0.0257
      9 C          63.8468   90.1158   12.8017 C.ar    1  UNL1       -0.0162
     10 C          64.5403   90.2119   14.1283 C.3     1  UNL1        0.0481
     11 C          66.2136   91.9597   15.2642 C.3     1  UNL1        0.0394
     12 C          67.6612   91.5725   15.3317 C.3     1  UNL1        0.0765
     13 C          68.8808   93.8272   15.7547 C.3     1  UNL1        0.0897
     14 N          68.7214   92.5658   14.9587 N.3     1  UNL1       -0.2700
     15 C          69.6224   92.2978   13.7898 C.3     1  UNL1        0.0897
     16 C          65.8042   93.4415   12.3856 C.3     1  UNL1        0.0730
     17 C          66.6143   93.4996   11.1244 C.ar    1  UNL1        0.0825
     18 C          66.4516   94.6543   10.1809 C.ar    1  UNL1        0.1139
     19 N          67.2616   94.7124    8.9198 N.ar    1  UNL1       -0.2394
     20 C          68.2343   93.6156    8.6021 C.ar    1  UNL1        0.1195
     21 C          68.3971   92.4609    9.5456 C.ar    1  UNL1        0.1191
     22 N          67.5871   92.4028   10.8067 N.ar    1  UNL1       -0.2446
@<TRIPOS>BOND
     1    13    14    1
     2    14    15    1
     3    14    12    1
     4    12    11    1
     5    11     1    1
     6     1     2    2
     7     2    16    1
     8    16    17    1
     9    17    18   ar
    10    18    19   ar
    11    19    20   ar
    12    20    21   ar
    13    21    22   ar
    14     2     3    1
    15     3     4   ar
    16     4     5   ar
    17     5     6   ar
    18     6     7    1
    19     6     8   ar
    20     8     9   ar
    21     9    10    1
    22    10     1    1
    23    22    17   ar
    24     9     3   ar
@<TRIPOS>MOLECULE
*****
 22 24 0 0 0
SMALL
GASTEIGER

@<TRIPOS>ATOM
      1 C          63.9075   89.6986   13.5379 C.2     1  UNL1       -0.0420
      2 C          63.8776   88.2002   13.5994 C.2     1  UNL1       -0.0240
      3 C          63.1384   87.7013   12.3933 C.ar    1  UNL1       -0.0077
      4 C          62.7989   86.3172   11.9256 C.ar    1  UNL1        0.0017
      5 C          62.0324   86.1232   10.6509 C.ar    1  UNL1        0.0296
      6 C          61.6055   87.3133    9.8439 C.ar    1  UNL1        0.1398
      7 F          60.8390   87.1192    8.5692 F       1  UNL1       -0.2042
      8 C          61.9450   88.6975   10.3116 C.ar    1  UNL1        0.0257
      9 C          62.7114   88.8915   11.5863 C.ar    1  UNL1       -0.0162
     10 C          63.1868   90.1258   12.2937 C.3     1  UNL1        0.0481
     11 C          64.5460   90.6098   14.5439 C.3     1  UNL1        0.0394
     12 C          65.9279   91.1413   14.3036 C.3     1  UNL1        0.0765
     13 C          66.7808   93.5798   14.5802 C.3     1  UNL1        0.0897
     14 N          66.1144   92.5229   13.7501 N.3     1  UNL1       -0.2700
     15 C          65.6343   92.8477   12.3666 C.3     1  UNL1        0.0897
     16 C          64.4809   87.3498   14.6778 C.3     1  UNL1        0.0730
     17 C          64.0802   85.9103   14.8101 C.ar    1  UNL1        0.0825
     18 C          64.9459   84.8340   14.2253 C.ar    1  UNL1        0.1139
     19 N          64.5453   83.3946   14.3577 N.ar    1  UNL1       -0.2394
     20 C          63.2789   83.0315   15.0748 C.ar    1  UNL1        0.1195
     21 C          62.4131   84.1078   15.6596 C.ar    1  UNL1        0.1191
     22 N          62.8138   85.5472   15.5273 N.ar    1  UNL1       -0.2446
@<TRIPOS>BOND
     1    13    14    1
     2    14    15    1
     3    14    12    1
     4    12    11    1
     5    11     1    1
     6     1     2    2
     7     2    16    1
     8    16    17    1
     9    17    18   ar
    10    18    19   ar
    11    19    20   ar
    12    20    21   ar
    13    21    22   ar
    14     2     3    1
    15     3     4   ar
    16     4     5   ar
    17     5     6   ar
    18     6     7    1
    19     6     8   ar
    20     8     9   ar
    21     9    10    1
    22    10     1    1
    23    22    17   ar
    24     9     3   ar
@<TRIPOS>MOLECULE
*****
 22 24 0 0 0
SMALL
GASTEIGER

@<TRIPOS>ATOM
      1 C          62.2920   88.7666   11.0211 C.2     1  UNL1       -0.0420
      2 C          62.9745   89.3003   12.2455 C.2     1  UNL1       -0.0240
      3 C          63.4587   88.1323   13.0526 C.ar    1  UNL1       -0.0077
      4 C          64.1991   88.0499   14.3545 C.ar    1  UNL1        0.0017
      5 C          64.5562   86.7119   14.9308 C.ar    1  UNL1        0.0296
      6 C          64.1730   85.4563   14.2051 C.ar    1  UNL1        0.1398
      7 F          64.5301   84.1182   14.7814 F       1  UNL1       -0.2042
      8 C          63.4326   85.5387   12.9032 C.ar    1  UNL1        0.0257
      9 C          63.0755   86.8767   12.3270 C.ar    1  UNL1       -0.0162
     10 C          62.3544   87.2687   11.0714 C.3     1  UNL1        0.0481
     11 C          61.6583   89.5867    9.9367 C.3     1  UNL1        0.0394
     12 C          60.2066   89.4018    9.6077 C.3     1  UNL1        0.0765
     13 C          59.4827   89.1816    7.1222 C.3     1  UNL1        0.0897
     14 N          59.8046   88.5468    8.4426 N.3     1  UNL1       -0.2700
     15 C          59.7244   87.0570    8.5980 C.3     1  UNL1        0.0897
     16 C          63.1431   90.7479   12.6006 C.3     1  UNL1        0.0730
     17 C          64.3996   91.4726   12.2179 C.ar    1  UNL1        0.0825
     18 C          64.5627   92.0070   10.8258 C.ar    1  UNL1        0.1139
     19 N          65.8190   92.7316   10.4430 N.ar    1  UNL1       -0.2394
     20 C          66.9122   92.9219   11.4523 C.ar    1  UNL1        0.1195
     21 C          66.7490   92.3875   12.8444 C.ar    1  UNL1        0.1191
     22 N          65.4928   91.6628   13.2272 N.ar    1  UNL1       -0.2446
@<TRIPOS>BOND
     1    13    14    1
     2    14    15    1
     3    14    12    1
     4    12    11    1
     5    11     1    1
     6     1     2    2
     7     2    16    1
     8    16    17    1
     9    17    18   ar
    10    18    19   ar
    11    19    20   ar
    12    20    21   ar
    13    21    22   ar
    14     2     3    1
    15     3     4   ar
    16     4     5   ar
    17     5     6   ar
    18     6     7    1
    19     6     8   ar
    20     8     9   ar
    21     9    10    1
    22    10     1    1
    23    22    17   ar
    24     9     3   ar
@<TRIPOS>MOLECULE
*****
 22 24 0 0 0
SMALL
GASTEIGER

@<TRIPOS>ATOM
      1 C          63.3665   90.4932   11.5247 C.2     1  UNL1       -0.0420
      2 C          63.3954   89.1844   12.2571 C.2     1  UNL1       -0.0240
      3 C          62.5735   88.1998   11.4793 C.ar    1  UNL1       -0.0077
      4 C          62.2446   86.7561   11.7189 C.ar    1  UNL1        0.0017
      5 C          61.3788   86.0126   10.7455 C.ar    1  UNL1        0.0296
      6 C          60.8419   86.7128    9.5324 C.ar    1  UNL1        0.1398
      7 F          59.9761   85.9692    8.5590 F       1  UNL1       -0.2042
      8 C          61.1708   88.1565    9.2928 C.ar    1  UNL1        0.0257
      9 C          62.0366   88.9000   10.2663 C.ar    1  UNL1       -0.0162
     10 C          62.5267   90.3174   10.2944 C.3     1  UNL1        0.0481
     11 C          64.0562   91.7560   11.9484 C.3     1  UNL1        0.0394
     12 C          65.1351   92.3458   11.0893 C.3     1  UNL1        0.0765
     13 C          66.3565   93.9106   12.7655 C.3     1  UNL1        0.0897
     14 N          65.7145   93.6872   11.4283 N.3     1  UNL1       -0.2700
     15 C          65.6520   94.8052   10.4303 C.3     1  UNL1        0.0897
     16 C          64.1191   88.9087   13.5416 C.3     1  UNL1        0.0730
     17 C          64.3438   90.0158   14.5285 C.ar    1  UNL1        0.0825
     18 C          63.2868   90.3439   15.5410 C.ar    1  UNL1        0.1139
     19 N          63.5113   91.4510   16.5279 N.ar    1  UNL1       -0.2394
     20 C          64.7929   92.2300   16.5023 C.ar    1  UNL1        0.1195
     21 C          65.8499   91.9019   15.4898 C.ar    1  UNL1        0.1191
     22 N          65.6254   90.7948   14.5029 N.ar    1  UNL1       -0.2446
@<TRIPOS>BOND
     1    13    14    1
     2    14    15    1
     3    14    12    1
     4    12    11    1
     5    11     1    1
     6     1     2    2
     7     2    16    1
     8    16    17    1
     9    17    18   ar
    10    18    19   ar
    11    19    20   ar
    12    20    21   ar
    13    21    22   ar
    14     2     3    1
    15     3     4   ar
    16     4     5   ar
    17     5     6   ar
    18     6     7    1
    19     6     8   ar
    20     8     9   ar
    21     9    10    1
    22    10     1    1
    23    22    17   ar
    24     9     3   ar
@<TRIPOS>MOLECULE
*****
 22 24 0 0 0
SMALL
GASTEIGER

@<TRIPOS>ATOM
      1 C          63.3267   90.2709   12.3702 C.2     1  UNL1       -0.0420
      2 C          63.6038   88.8784   12.8541 C.2     1  UNL1       -0.0240
      3 C          62.8540   87.9237   11.9731 C.ar    1  UNL1       -0.0077
      4 C          62.7498   86.4273   11.9744 C.ar    1  UNL1        0.0017
      5 C          61.9051   85.7334   10.9474 C.ar    1  UNL1        0.0296
      6 C          61.1645   86.5358    9.9190 C.ar    1  UNL1        0.1398
      7 F          60.3198   85.8418    8.8919 F       1  UNL1       -0.2042
      8 C          61.2686   88.0321    9.9176 C.ar    1  UNL1        0.0257
      9 C          62.1133   88.7261   10.9447 C.ar    1  UNL1       -0.0162
     10 C          62.4055   90.1767   11.1901 C.3     1  UNL1        0.0481
     11 C          63.8745   91.5355   12.9624 C.3     1  UNL1        0.0394
     12 C          65.3085   91.9112   12.7333 C.3     1  UNL1        0.0765
     13 C          67.7533   91.8788   13.6120 C.3     1  UNL1        0.0897
     14 N          66.2773   91.9057   13.8784 N.3     1  UNL1       -0.2700
     15 C          65.7703   91.9271   15.2899 C.3     1  UNL1        0.0897
     16 C          64.4774   88.5060   14.0151 C.3     1  UNL1        0.0730
     17 C          63.8856   87.8151   15.2078 C.ar    1  UNL1        0.0825
     18 C          63.3362   88.6226   16.3463 C.ar    1  UNL1        0.1139
     19 N          62.7444   87.9318   17.5389 N.ar    1  UNL1       -0.2394
     20 C          62.7019   86.4334   17.5931 C.ar    1  UNL1        0.1195
     21 C          63.2513   85.6258   16.4547 C.ar    1  UNL1        0.1191
     22 N          63.8432   86.3167   15.2620 N.ar    1  UNL1       -0.2446
@<TRIPOS>BOND
     1    13    14    1
     2    14    15    1
     3    14    12    1
     4    12    11    1
     5    11     1    1
     6     1     2    2
     7     2    16    1
     8    16    17    1
     9    17    18   ar
    10    18    19   ar
    11    19    20   ar
    12    20    21   ar
    13    21    22   ar
    14     2     3    1
    15     3     4   ar
    16     4     5   ar
    17     5     6   ar
    18     6     7    1
    19     6     8   ar
    20     8     9   ar
    21     9    10    1
    22    10     1    1
    23    22    17   ar
    24     9     3   ar
@<TRIPOS>MOLECULE
*****
 22 24 0 0 0
SMALL
GASTEIGER

@<TRIPOS>ATOM
      1 C          63.5198   86.4390   13.2811 C.2     1  UNL1       -0.0420
      2 C          62.9380   85.7073   12.1081 C.2     1  UNL1       -0.0240
      3 C          62.9625   84.2399   12.4185 C.ar    1  UNL1       -0.0077
      4 C          62.5184   83.0407   11.6347 C.ar    1  UNL1        0.0017
      5 C          62.6712   81.6663   12.2157 C.ar    1  UNL1        0.0296
      6 C          63.2681   81.4912   13.5807 C.ar    1  UNL1        0.1398
      7 F          63.4209   80.1167   14.1617 F       1  UNL1       -0.2042
      8 C          63.7122   82.6904   14.3645 C.ar    1  UNL1        0.0257
      9 C          63.5594   84.0648   13.7834 C.ar    1  UNL1       -0.0162
     10 C          63.9039   85.4239   14.3165 C.3     1  UNL1        0.0481
     11 C          63.6880   87.9250   13.3982 C.3     1  UNL1        0.0394
     12 C          64.4448   88.5052   14.5560 C.3     1  UNL1        0.0765
     13 C          63.6305   90.6846   15.7124 C.3     1  UNL1        0.0897
     14 N          63.7057   89.1871   15.6690 N.3     1  UNL1       -0.2700
     15 C          63.0419   88.3715   16.7387 C.3     1  UNL1        0.0897
     16 C          62.4223   86.3330   10.8461 C.3     1  UNL1        0.0730
     17 C          61.6903   87.6412   10.9024 C.ar    1  UNL1        0.0825
     18 C          62.2329   88.8359   10.1756 C.ar    1  UNL1        0.1139
     19 N          61.5011   90.1441   10.2318 N.ar    1  UNL1       -0.2394
     20 C          60.2267   90.2574   11.0148 C.ar    1  UNL1        0.1195
     21 C          59.6841   89.0626   11.7416 C.ar    1  UNL1        0.1191
     22 N          60.4159   87.7545   11.6854 N.ar    1  UNL1       -0.2446
@<TRIPOS>BOND
     1    13    14    1
     2    14    15    1
     3    14    12    1
     4    12    11    1
     5    11     1    1
     6     1     2    2
     7     2    16    1
     8    16    17    1
     9    17    18   ar
    10    18    19   ar
    11    19    20   ar
    12    20    21   ar
    13    21    22   ar
    14     2     3    1
    15     3     4   ar
    16     4     5   ar
    17     5     6   ar
    18     6     7    1
    19     6     8   ar
    20     8     9   ar
    21     9    10    1
    22    10     1    1
    23    22    17   ar
    24     9     3   ar
@<TRIPOS>MOLECULE
*****
 22 24 0 0 0
SMALL
GASTEIGER

@<TRIPOS>ATOM
      1 C          63.8429   89.5933   13.4304 C.2     1  UNL1       -0.0420
      2 C          63.2388   88.7013   12.3867 C.2     1  UNL1       -0.0240
      3 C          63.3829   87.2819   12.8502 C.ar    1  UNL1       -0.0077
      4 C          62.9725   85.9780   12.2329 C.ar    1  UNL1        0.0017
      5 C          63.2553   84.6888   12.9457 C.ar    1  UNL1        0.0296
      6 C          63.9485   84.7037   14.2758 C.ar    1  UNL1        0.1398
      7 F          64.2313   83.4145   14.9886 F       1  UNL1       -0.2042
      8 C          64.3589   86.0077   14.8931 C.ar    1  UNL1        0.0257
      9 C          64.0761   87.2968   14.1803 C.ar    1  UNL1       -0.0162
     10 C          64.3604   88.7253   14.5389 C.3     1  UNL1        0.0481
     11 C          63.9166   91.0905   13.3752 C.3     1  UNL1        0.0394
     12 C          65.2502   91.7739   13.3096 C.3     1  UNL1        0.0765
     13 C          65.0635   92.4477   10.8074 C.3     1  UNL1        0.0897
     14 N          65.5457   92.7368   12.1981 N.3     1  UNL1       -0.2700
     15 C          66.3233   93.9887   12.4772 C.3     1  UNL1        0.0897
     16 C          62.6022   89.1497   11.1047 C.3     1  UNL1        0.0730
     17 C          61.8369   88.1705   10.2646 C.ar    1  UNL1        0.0825
     18 C          60.3376   88.1569   10.3072 C.ar    1  UNL1        0.1139
     19 N          59.5723   87.1778    9.4672 N.ar    1  UNL1       -0.2394
     20 C          60.3064   86.2123    8.5846 C.ar    1  UNL1        0.1195
     21 C          61.8057   86.2260    8.5420 C.ar    1  UNL1        0.1191
     22 N          62.5710   87.2051    9.3819 N.ar    1  UNL1       -0.2446
@<TRIPOS>BOND
     1    13    14    1
     2    14    15    1
     3    14    12    1
     4    12    11    1
     5    11     1    1
     6     1     2    2
     7     2    16    1
     8    16    17    1
     9    17    18   ar
    10    18    19   ar
    11    19    20   ar
    12    20    21   ar
    13    21    22   ar
    14     2     3    1
    15     3     4   ar
    16     4     5   ar
    17     5     6   ar
    18     6     7    1
    19     6     8   ar
    20     8     9   ar
    21     9    10    1
    22    10     1    1
    23    22    17   ar
    24     9     3   ar
