@<TRIPOS>MOLECULE
*****
 40 45 0 0 0
SMALL
GASTEIGER

@<TRIPOS>ATOM
      1 C          61.2944   92.4605    3.0198 C.3     1  UNL1        0.0795
      2 C          61.9349   91.3731    3.8305 C.3     1  UNL1        0.0414
      3 C          61.1286   90.6225    4.8485 C.3     1  UNL1        0.0952
      4 N          59.6816   90.9593    5.0559 N.am    1  UNL1       -0.2773
      5 C          58.8753   90.2087    6.0739 C.2     1  UNL1        0.2553
      6 O          57.4284   90.5456    6.2812 O.2     1  UNL1       -0.2720
      7 C          59.0411   92.0467    4.2451 C.3     1  UNL1        0.0952
      8 C          59.8474   92.7973    3.2271 C.3     1  UNL1        0.0414
      9 C          65.7873   96.7003   -1.2610 C.3     1  UNL1        0.0742
     10 C          65.2795   96.2566    0.0788 C.ar    1  UNL1        0.1477
     11 N          65.7430   96.7675    1.4107 N.ar    1  UNL1       -0.1332
     12 N          64.9690   96.0508    2.4772 N.ar    1  UNL1       -0.1315
     13 C          64.0271   95.0968    1.8043 C.ar    1  UNL1        0.1675
     14 N          64.2190   95.2241    0.3220 N.ar    1  UNL1       -0.2736
     15 C          63.5155   94.4868   -0.7788 C.ar    1  UNL1        0.1005
     16 S          63.8009   94.7071   -2.2348 S.2     1  UNL1       -0.0687
     17 C          62.9083   93.7968   -3.0250 C.ar    1  UNL1        0.0370
     18 C          62.0712   93.0139   -2.0574 C.ar    1  UNL1        0.0135
     19 C          62.4464   93.4403   -0.6691 C.ar    1  UNL1        0.0765
     20 C          61.8168   92.8726    0.5683 C.2     1  UNL1        0.2512
     21 O          60.7641   91.8282    0.3424 O.2     1  UNL1       -0.2698
     22 N          62.1007   93.2111    2.0018 N.am    1  UNL1       -0.2705
     23 C          63.0844   94.2010    2.5518 C.3     1  UNL1        0.1601
     24 C          59.5158   89.1214    6.8846 C.3     1  UNL1        0.2042
     25 F          59.1465   88.3462    5.6547 F       1  UNL1       -0.2306
     26 C          59.6627   90.2743    7.8329 C.3     1  UNL1        0.0590
     27 C          60.3218   90.0706    9.1648 C.3     1  UNL1        0.0756
     28 N          60.8342   88.7139    9.5484 N.3     1  UNL1       -0.2688
     29 C          60.6873   87.5611    8.6001 C.3     1  UNL1        0.0756
     30 C          60.0281   87.7648    7.2682 C.3     1  UNL1        0.0590
     31 C          61.4933   88.5102   10.8804 C.3     1  UNL1        0.0993
     32 C          62.3876   89.5739   11.4451 C.ar    1  UNL1       -0.0018
     33 C          63.1583   90.4727   10.5241 C.ar    1  UNL1        0.0179
     34 C          64.0525   91.5363   11.0889 C.ar    1  UNL1        0.1000
     35 N          64.1761   91.7012   12.5747 N.ar    1  UNL1       -0.2296
     36 C          63.4054   90.8024   13.4956 C.ar    1  UNL1        0.1251
     37 N          63.5289   90.9672   14.9814 N.pl3   1  UNL1       -0.3426
     38 C          62.5111   89.7387   12.9309 C.ar    1  UNL1        0.0310
     39 H          64.1159   91.6653   15.3521 H       1  UNL1        0.1437
     40 H          63.0231   90.3773   15.5859 H       1  UNL1        0.1437
@<TRIPOS>BOND
     1     9    10    1
     2    10    11   ar
     3    11    12   ar
     4    12    13   ar
     5    13    14   ar
     6    14    15    1
     7    15    16   ar
     8    16    17   ar
     9    17    18   ar
    10    18    19   ar
    11    19    20    1
    12    20    21    2
    13    20    22   am
    14    22     1    1
    15     1     2    1
    16     2     3    1
    17     3     4    1
    18     4     5   am
    19     5     6    2
    20     5    24    1
    21    24    25    1
    22    24    26    1
    23    26    27    1
    24    27    28    1
    25    28    31    1
    26    31    32    1
    27    32    33   ar
    28    33    34   ar
    29    34    35   ar
    30    35    36   ar
    31    36    37    1
    32    36    38   ar
    33    28    29    1
    34    29    30    1
    35     4     7    1
    36     7     8    1
    37    22    23    1
    38    14    10   ar
    39    19    15   ar
    40     8     1    1
    41    23    13    1
    42    30    24    1
    43    38    32   ar
    44    37    39    1
    45    37    40    1
@<TRIPOS>MOLECULE
*****
 40 45 0 0 0
SMALL
GASTEIGER

@<TRIPOS>ATOM
      1 C          58.0196   95.3546   -4.9104 C.3     1  UNL1        0.0795
      2 C          58.9811   95.9353   -3.9163 C.3     1  UNL1        0.0414
      3 C          60.4536   95.6925   -4.0670 C.3     1  UNL1        0.0952
      4 N          60.9646   94.8689   -5.2119 N.am    1  UNL1       -0.2773
      5 C          62.4371   94.6260   -5.3625 C.2     1  UNL1        0.2553
      6 O          62.9481   93.8025   -6.5074 O.2     1  UNL1       -0.2720
      7 C          60.0030   94.2882   -6.2059 C.3     1  UNL1        0.0952
      8 C          58.5306   94.5311   -6.0552 C.3     1  UNL1        0.0414
      9 C          50.6219   96.6491   -5.2042 C.3     1  UNL1        0.0742
     10 C          51.9544   96.4667   -5.8684 C.ar    1  UNL1        0.1477
     11 N          52.2197   96.5255   -7.3435 N.ar    1  UNL1       -0.1332
     12 N          53.6849   96.2886   -7.5609 N.ar    1  UNL1       -0.1315
     13 C          54.3251   96.0835   -6.2200 C.ar    1  UNL1        0.1675
     14 N          53.2556   96.1935   -5.1740 N.ar    1  UNL1       -0.2736
     15 C          53.3869   96.0655   -3.6852 C.ar    1  UNL1        0.1005
     16 S          52.2303   96.1977   -2.7393 S.2     1  UNL1       -0.0687
     17 C          52.7486   96.0097   -1.3443 C.ar    1  UNL1        0.0370
     18 C          54.2255   95.7613   -1.4280 C.ar    1  UNL1        0.0135
     19 C          54.6200   95.7958   -2.8748 C.ar    1  UNL1        0.0765
     20 C          56.0263   95.5876   -3.3529 C.2     1  UNL1        0.2512
     21 O          57.0471   95.3360   -2.2830 O.2     1  UNL1       -0.2698
     22 N          56.5470   95.5975   -4.7597 N.am    1  UNL1       -0.2705
     23 C          55.7899   95.8182   -6.0356 C.3     1  UNL1        0.1601
     24 C          63.3986   95.2067   -4.3684 C.3     1  UNL1        0.2042
     25 F          63.6819   96.0868   -5.5496 F       1  UNL1       -0.2306
     26 C          62.7813   94.1249   -3.5326 C.3     1  UNL1        0.0590
     27 C          63.2239   93.9295   -2.1128 C.3     1  UNL1        0.0756
     28 N          64.2839   94.8158   -1.5288 N.3     1  UNL1       -0.2688
     29 C          64.9011   95.8976   -2.3647 C.3     1  UNL1        0.0756
     30 C          64.4585   96.0930   -3.7845 C.3     1  UNL1        0.0590
     31 C          64.7265   94.6204   -0.1090 C.3     1  UNL1        0.0993
     32 C          63.8398   93.8962    0.8601 C.ar    1  UNL1       -0.0018
     33 C          62.4448   94.3870    1.1114 C.ar    1  UNL1        0.0179
     34 C          61.5581   93.6628    2.0805 C.ar    1  UNL1        0.1000
     35 N          62.0662   92.4478    2.7984 N.ar    1  UNL1       -0.2296
     36 C          63.4613   91.9570    2.5471 C.ar    1  UNL1        0.1251
     37 N          63.9695   90.7420    3.2650 N.pl3   1  UNL1       -0.3426
     38 C          64.3480   92.6812    1.5780 C.ar    1  UNL1        0.0310
     39 H          63.3875   90.2666    3.9011 H       1  UNL1        0.1437
     40 H          64.8851   90.4198    3.1002 H       1  UNL1        0.1437
@<TRIPOS>BOND
     1     9    10    1
     2    10    11   ar
     3    11    12   ar
     4    12    13   ar
     5    13    14   ar
     6    14    15    1
     7    15    16   ar
     8    16    17   ar
     9    17    18   ar
    10    18    19   ar
    11    19    20    1
    12    20    21    2
    13    20    22   am
    14    22     1    1
    15     1     2    1
    16     2     3    1
    17     3     4    1
    18     4     5   am
    19     5     6    2
    20     5    24    1
    21    24    25    1
    22    24    26    1
    23    26    27    1
    24    27    28    1
    25    28    31    1
    26    31    32    1
    27    32    33   ar
    28    33    34   ar
    29    34    35   ar
    30    35    36   ar
    31    36    37    1
    32    36    38   ar
    33    28    29    1
    34    29    30    1
    35     4     7    1
    36     7     8    1
    37    22    23    1
    38    14    10   ar
    39    19    15   ar
    40     8     1    1
    41    23    13    1
    42    30    24    1
    43    38    32   ar
    44    37    39    1
    45    37    40    1
@<TRIPOS>MOLECULE
*****
 40 45 0 0 0
SMALL
GASTEIGER

@<TRIPOS>ATOM
      1 C          60.4002   92.0553    3.6459 C.3     1  UNL1        0.0795
      2 C          61.3241   91.1772    4.4365 C.3     1  UNL1        0.0414
      3 C          60.7735   90.2759    5.5016 C.3     1  UNL1        0.0952
      4 N          59.2990   90.2527    5.7761 N.am    1  UNL1       -0.2773
      5 C          58.7484   89.3514    6.8412 C.2     1  UNL1        0.2553
      6 O          57.2739   89.3284    7.1156 O.2     1  UNL1       -0.2720
      7 C          58.3751   91.1310    4.9854 C.3     1  UNL1        0.0952
      8 C          58.9257   92.0323    3.9203 C.3     1  UNL1        0.0414
      9 C          62.1606   96.8538   -1.8645 C.3     1  UNL1        0.0742
     10 C          61.1573   96.1739   -0.9808 C.ar    1  UNL1        0.1477
     11 N          59.6724   96.3840   -1.0085 N.ar    1  UNL1       -0.1332
     12 N          59.0600   95.5045    0.0411 N.ar    1  UNL1       -0.1315
     13 C          60.1665   94.7509    0.7175 C.ar    1  UNL1        0.1675
     14 N          61.4627   95.1646    0.0860 N.ar    1  UNL1       -0.2736
     15 C          62.8512   94.6978    0.4088 C.ar    1  UNL1        0.1005
     16 S          64.0757   95.1929   -0.3023 S.2     1  UNL1       -0.0687
     17 C          65.2676   94.5032    0.2922 C.ar    1  UNL1        0.0370
     18 C          64.7799   93.5818    1.3708 C.ar    1  UNL1        0.0135
     19 C          63.2865   93.7021    1.4428 C.ar    1  UNL1        0.0765
     20 C          62.4408   92.9273    2.4094 C.2     1  UNL1        0.2512
     21 O          63.1830   92.0004    3.3258 O.2     1  UNL1       -0.2698
     22 N          60.9508   92.9567    2.5807 N.am    1  UNL1       -0.2705
     23 C          59.9387   93.7683    1.8277 C.3     1  UNL1        0.1601
     24 C          59.6723   88.4733    7.6318 C.3     1  UNL1        0.2042
     25 F          59.3311   87.5444    6.5046 F       1  UNL1       -0.2306
     26 C          59.6925   89.7072    8.4844 C.3     1  UNL1        0.0590
     27 C          60.5183   89.7403    9.7363 C.3     1  UNL1        0.0756
     28 N          61.3237   88.5395   10.1355 N.3     1  UNL1       -0.2688
     29 C          61.3034   87.3056    9.2828 C.3     1  UNL1        0.0756
     30 C          60.4777   87.2725    8.0310 C.3     1  UNL1        0.0590
     31 C          62.1494   88.5726   11.3874 C.3     1  UNL1        0.0993
     32 C          63.0377   89.7480   11.6690 C.ar    1  UNL1       -0.0018
     33 C          63.3572   90.7254   10.5769 C.ar    1  UNL1        0.0179
     34 C          64.2455   91.9008   10.8587 C.ar    1  UNL1        0.1000
     35 N          64.8143   92.0988   12.2323 N.ar    1  UNL1       -0.2296
     36 C          64.4948   91.1214   13.3244 C.ar    1  UNL1        0.1251
     37 N          65.0636   91.3195   14.6982 N.pl3   1  UNL1       -0.3426
     38 C          63.6065   89.9460   13.0428 C.ar    1  UNL1        0.0310
     39 H          65.6466   92.0909   14.8831 H       1  UNL1        0.1437
     40 H          64.8539   90.6780   15.4150 H       1  UNL1        0.1437
@<TRIPOS>BOND
     1     9    10    1
     2    10    11   ar
     3    11    12   ar
     4    12    13   ar
     5    13    14   ar
     6    14    15    1
     7    15    16   ar
     8    16    17   ar
     9    17    18   ar
    10    18    19   ar
    11    19    20    1
    12    20    21    2
    13    20    22   am
    14    22     1    1
    15     1     2    1
    16     2     3    1
    17     3     4    1
    18     4     5   am
    19     5     6    2
    20     5    24    1
    21    24    25    1
    22    24    26    1
    23    26    27    1
    24    27    28    1
    25    28    31    1
    26    31    32    1
    27    32    33   ar
    28    33    34   ar
    29    34    35   ar
    30    35    36   ar
    31    36    37    1
    32    36    38   ar
    33    28    29    1
    34    29    30    1
    35     4     7    1
    36     7     8    1
    37    22    23    1
    38    14    10   ar
    39    19    15   ar
    40     8     1    1
    41    23    13    1
    42    30    24    1
    43    38    32   ar
    44    37    39    1
    45    37    40    1
@<TRIPOS>MOLECULE
*****
 40 45 0 0 0
SMALL
GASTEIGER

@<TRIPOS>ATOM
      1 C          58.2676   94.8178   -2.9795 C.3     1  UNL1        0.0795
      2 C          58.6503   94.9607   -1.5362 C.3     1  UNL1        0.0414
      3 C          60.0340   94.5947   -1.0875 C.3     1  UNL1        0.0952
      4 N          61.0350   94.0857   -2.0820 N.am    1  UNL1       -0.2773
      5 C          62.4186   93.7198   -1.6332 C.2     1  UNL1        0.2553
      6 O          63.4196   93.2108   -2.6278 O.2     1  UNL1       -0.2720
      7 C          60.6521   93.9428   -3.5253 C.3     1  UNL1        0.0952
      8 C          59.2685   94.3088   -3.9740 C.3     1  UNL1        0.0414
      9 C          51.7034   96.5444   -6.2073 C.3     1  UNL1        0.0742
     10 C          53.1501   96.1569   -6.2901 C.ar    1  UNL1        0.1477
     11 N          53.9332   95.9366   -7.5502 N.ar    1  UNL1       -0.1332
     12 N          55.3349   95.5652   -7.1662 N.ar    1  UNL1       -0.1315
     13 C          55.4181   95.5561   -5.6685 C.ar    1  UNL1        0.1675
     14 N          54.0678   95.9218   -5.1270 N.ar    1  UNL1       -0.2736
     15 C          53.6374   96.0494   -3.6957 C.ar    1  UNL1        0.1005
     16 S          52.2454   96.4251   -3.2819 S.2     1  UNL1       -0.0687
     17 C          52.1986   96.4507   -1.7828 C.ar    1  UNL1        0.0370
     18 C          53.5616   96.0908   -1.2702 C.ar    1  UNL1        0.0135
     19 C          54.4508   95.8427   -2.4525 C.ar    1  UNL1        0.0765
     20 C          55.8955   95.4576   -2.3335 C.2     1  UNL1        0.2512
     21 O          56.4218   95.3291   -0.9347 O.2     1  UNL1       -0.2698
     22 N          56.8838   95.1838   -3.4283 N.am    1  UNL1       -0.2705
     23 C          56.6712   95.2276   -4.9125 C.3     1  UNL1        0.1601
     24 C          62.8014   93.8627   -0.1900 C.3     1  UNL1        0.2042
     25 F          63.4629   95.0836   -0.7571 F       1  UNL1       -0.2306
     26 C          62.0069   92.5920   -0.1242 C.3     1  UNL1        0.0590
     27 C          61.8249   91.8884    1.1879 C.3     1  UNL1        0.0756
     28 N          62.4374   92.4554    2.4343 N.3     1  UNL1       -0.2688
     29 C          63.2319   93.7260    2.3685 C.3     1  UNL1        0.0756
     30 C          63.4139   94.4297    1.0563 C.3     1  UNL1        0.0590
     31 C          62.2555   91.7517    3.7465 C.3     1  UNL1        0.0993
     32 C          60.8761   91.5204    4.2885 C.ar    1  UNL1       -0.0018
     33 C          59.7429   92.4035    3.8573 C.ar    1  UNL1        0.0179
     34 C          58.3636   92.1721    4.3993 C.ar    1  UNL1        0.1000
     35 N          58.1173   91.0576    5.3725 N.ar    1  UNL1       -0.2296
     36 C          59.2505   90.1744    5.8037 C.ar    1  UNL1        0.1251
     37 N          59.0043   89.0599    6.7769 N.pl3   1  UNL1       -0.3426
     38 C          60.6299   90.4058    5.2617 C.ar    1  UNL1        0.0310
     39 H          58.0990   88.9080    7.1326 H       1  UNL1        0.1437
     40 H          59.7481   88.4802    7.0599 H       1  UNL1        0.1437
@<TRIPOS>BOND
     1     9    10    1
     2    10    11   ar
     3    11    12   ar
     4    12    13   ar
     5    13    14   ar
     6    14    15    1
     7    15    16   ar
     8    16    17   ar
     9    17    18   ar
    10    18    19   ar
    11    19    20    1
    12    20    21    2
    13    20    22   am
    14    22     1    1
    15     1     2    1
    16     2     3    1
    17     3     4    1
    18     4     5   am
    19     5     6    2
    20     5    24    1
    21    24    25    1
    22    24    26    1
    23    26    27    1
    24    27    28    1
    25    28    31    1
    26    31    32    1
    27    32    33   ar
    28    33    34   ar
    29    34    35   ar
    30    35    36   ar
    31    36    37    1
    32    36    38   ar
    33    28    29    1
    34    29    30    1
    35     4     7    1
    36     7     8    1
    37    22    23    1
    38    14    10   ar
    39    19    15   ar
    40     8     1    1
    41    23    13    1
    42    30    24    1
    43    38    32   ar
    44    37    39    1
    45    37    40    1
@<TRIPOS>MOLECULE
*****
 40 45 0 0 0
SMALL
GASTEIGER

@<TRIPOS>ATOM
      1 C          62.1257   89.8900   10.8785 C.3     1  UNL1        0.0795
      2 C          61.2193   90.7895   10.0917 C.3     1  UNL1        0.0414
      3 C          60.4064   90.2321    8.9611 C.3     1  UNL1        0.0952
      4 N          60.4998   88.7749    8.6173 N.am    1  UNL1       -0.2773
      5 C          59.6868   88.2174    7.4868 C.2     1  UNL1        0.2553
      6 O          59.7803   86.7603    7.1431 O.2     1  UNL1       -0.2720
      7 C          61.4062   87.8754    9.4043 C.3     1  UNL1        0.0952
      8 C          62.2192   88.4329   10.5348 C.3     1  UNL1        0.0414
      9 C          65.5652   92.1299   17.1746 C.3     1  UNL1        0.0742
     10 C          64.5057   91.3437   16.4609 C.ar    1  UNL1        0.1477
     11 N          63.4709   90.4705   17.1062 N.ar    1  UNL1       -0.1332
     12 N          62.6206   89.8798   16.0208 N.ar    1  UNL1       -0.1315
     13 C          63.1300   90.3880   14.7046 C.ar    1  UNL1        0.1675
     14 N          64.2951   91.2928   14.9767 N.ar    1  UNL1       -0.2736
     15 C          65.1443   92.0448   13.9952 C.ar    1  UNL1        0.1005
     16 S          66.2906   92.9244   14.3981 S.2     1  UNL1       -0.0687
     17 C          66.8929   93.5010   13.1512 C.ar    1  UNL1        0.0370
     18 C          66.1189   92.9778   11.9777 C.ar    1  UNL1        0.0135
     19 C          65.0381   92.0778   12.4993 C.ar    1  UNL1        0.0765
     20 C          64.0566   91.3670   11.6155 C.2     1  UNL1        0.2512
     21 O          64.2137   91.6073   10.1432 O.2     1  UNL1       -0.2698
     22 N          62.9388   90.4475   12.0091 N.am    1  UNL1       -0.2705
     23 C          62.5264   90.0118   13.3840 C.3     1  UNL1        0.1601
     24 C          58.7804   89.1170    6.6999 C.3     1  UNL1        0.2042
     25 F          57.7616   88.2558    7.3856 F       1  UNL1       -0.2306
     26 C          60.1142   89.6657    6.2875 C.3     1  UNL1        0.0590
     27 C          60.1876   90.8150    5.3264 C.3     1  UNL1        0.0756
     28 N          58.9273   91.4155    4.7776 N.3     1  UNL1       -0.2688
     29 C          57.5936   90.8667    5.1901 C.3     1  UNL1        0.0756
     30 C          57.5202   89.7175    6.1512 C.3     1  UNL1        0.0590
     31 C          59.0007   92.5648    3.8165 C.3     1  UNL1        0.0993
     32 C          60.0860   92.6092    2.7820 C.ar    1  UNL1       -0.0018
     33 C          59.7508   92.9346    1.3566 C.ar    1  UNL1        0.0179
     34 C          60.8362   92.9790    0.3223 C.ar    1  UNL1        0.1000
     35 N          62.2567   92.6980    0.7132 N.ar    1  UNL1       -0.2296
     36 C          62.5920   92.3725    2.1386 C.ar    1  UNL1        0.1251
     37 N          64.0126   92.0915    2.5295 N.pl3   1  UNL1       -0.3426
     38 C          61.5067   92.3281    3.1730 C.ar    1  UNL1        0.0310
     39 H          64.7250   92.1206    1.8506 H       1  UNL1        0.1437
     40 H          64.2327   91.8779    3.4650 H       1  UNL1        0.1437
@<TRIPOS>BOND
     1     9    10    1
     2    10    11   ar
     3    11    12   ar
     4    12    13   ar
     5    13    14   ar
     6    14    15    1
     7    15    16   ar
     8    16    17   ar
     9    17    18   ar
    10    18    19   ar
    11    19    20    1
    12    20    21    2
    13    20    22   am
    14    22     1    1
    15     1     2    1
    16     2     3    1
    17     3     4    1
    18     4     5   am
    19     5     6    2
    20     5    24    1
    21    24    25    1
    22    24    26    1
    23    26    27    1
    24    27    28    1
    25    28    31    1
    26    31    32    1
    27    32    33   ar
    28    33    34   ar
    29    34    35   ar
    30    35    36   ar
    31    36    37    1
    32    36    38   ar
    33    28    29    1
    34    29    30    1
    35     4     7    1
    36     7     8    1
    37    22    23    1
    38    14    10   ar
    39    19    15   ar
    40     8     1    1
    41    23    13    1
    42    30    24    1
    43    38    32   ar
    44    37    39    1
    45    37    40    1
@<TRIPOS>MOLECULE
*****
 40 45 0 0 0
SMALL
GASTEIGER

@<TRIPOS>ATOM
      1 C          62.2846   89.9618   10.8010 C.3     1  UNL1        0.0795
      2 C          61.3877   90.8786   10.0232 C.3     1  UNL1        0.0414
      3 C          60.5331   90.3322    8.9183 C.3     1  UNL1        0.0952
      4 N          60.5753   88.8689    8.5911 N.am    1  UNL1       -0.2773
      5 C          59.7207   88.3225    7.4861 C.2     1  UNL1        0.2553
      6 O          59.7630   86.8592    7.1590 O.2     1  UNL1       -0.2720
      7 C          61.4722   87.9521    9.3689 C.3     1  UNL1        0.0952
      8 C          62.3269   88.4985   10.4739 C.3     1  UNL1        0.0414
      9 C          67.1321   93.1544   15.5756 C.3     1  UNL1        0.0742
     10 C          66.6369   92.8845   14.1857 C.ar    1  UNL1        0.1477
     11 N          67.2462   93.4023   12.9166 N.ar    1  UNL1       -0.1332
     12 N          66.4313   92.8873   11.7673 N.ar    1  UNL1       -0.1315
     13 C          65.3184   92.0512   12.3262 C.ar    1  UNL1        0.1675
     14 N          65.4455   92.0495   13.8208 N.ar    1  UNL1       -0.2736
     15 C          64.5775   91.3614   14.8324 C.ar    1  UNL1        0.1005
     16 S          64.8127   91.4385   16.3119 S.2     1  UNL1       -0.0687
     17 C          63.7486   90.6299   16.9930 C.ar    1  UNL1        0.0370
     18 C          62.8559   90.0531   15.9346 C.ar    1  UNL1        0.0135
     19 C          63.3682   90.5052   14.5992 C.ar    1  UNL1        0.0765
     20 C          62.7281   90.1255   13.2969 C.2     1  UNL1        0.2512
     21 O          61.5166   89.2469   13.3988 O.2     1  UNL1       -0.2698
     22 N          63.1393   90.5083   11.9060 N.am    1  UNL1       -0.2705
     23 C          64.2921   91.3653   11.4741 C.3     1  UNL1        0.1601
     24 C          58.8238   89.2393    6.7083 C.3     1  UNL1        0.2042
     25 F          57.7955   88.4086    7.4173 F       1  UNL1       -0.2306
     26 C          60.1637   89.7515    6.2695 C.3     1  UNL1        0.0590
     27 C          60.2494   90.8920    5.2991 C.3     1  UNL1        0.0756
     28 N          58.9954   91.5204    4.7675 N.3     1  UNL1       -0.2688
     29 C          57.6556   91.0082    5.2063 C.3     1  UNL1        0.0756
     30 C          57.5698   89.8676    6.1767 C.3     1  UNL1        0.0590
     31 C          59.0812   92.6610    3.7970 C.3     1  UNL1        0.0993
     32 C          60.1525   92.6736    2.7473 C.ar    1  UNL1       -0.0018
     33 C          59.8066   93.0076    1.3265 C.ar    1  UNL1        0.0179
     34 C          60.8780   93.0202    0.2768 C.ar    1  UNL1        0.1000
     35 N          62.2954   92.6988    0.6479 N.ar    1  UNL1       -0.2296
     36 C          62.6413   92.3649    2.0688 C.ar    1  UNL1        0.1251
     37 N          64.0587   92.0436    2.4399 N.pl3   1  UNL1       -0.3426
     38 C          61.5700   92.3523    3.1185 C.ar    1  UNL1        0.0310
     39 H          64.7619   92.0518    1.7509 H       1  UNL1        0.1437
     40 H          64.2858   91.8244    3.3724 H       1  UNL1        0.1437
@<TRIPOS>BOND
     1     9    10    1
     2    10    11   ar
     3    11    12   ar
     4    12    13   ar
     5    13    14   ar
     6    14    15    1
     7    15    16   ar
     8    16    17   ar
     9    17    18   ar
    10    18    19   ar
    11    19    20    1
    12    20    21    2
    13    20    22   am
    14    22     1    1
    15     1     2    1
    16     2     3    1
    17     3     4    1
    18     4     5   am
    19     5     6    2
    20     5    24    1
    21    24    25    1
    22    24    26    1
    23    26    27    1
    24    27    28    1
    25    28    31    1
    26    31    32    1
    27    32    33   ar
    28    33    34   ar
    29    34    35   ar
    30    35    36   ar
    31    36    37    1
    32    36    38   ar
    33    28    29    1
    34    29    30    1
    35     4     7    1
    36     7     8    1
    37    22    23    1
    38    14    10   ar
    39    19    15   ar
    40     8     1    1
    41    23    13    1
    42    30    24    1
    43    38    32   ar
    44    37    39    1
    45    37    40    1
@<TRIPOS>MOLECULE
*****
 40 45 0 0 0
SMALL
GASTEIGER

@<TRIPOS>ATOM
      1 C          60.4027   91.9865    3.7178 C.3     1  UNL1        0.0795
      2 C          61.3326   91.0349    4.4104 C.3     1  UNL1        0.0414
      3 C          60.8107   90.1199    5.4782 C.3     1  UNL1        0.0952
      4 N          59.3588   90.1564    5.8535 N.am    1  UNL1       -0.2773
      5 C          58.8370   89.2414    6.9214 C.2     1  UNL1        0.2553
      6 O          57.3852   89.2780    7.2967 O.2     1  UNL1       -0.2720
      7 C          58.4290   91.1081    5.1609 C.3     1  UNL1        0.0952
      8 C          58.9508   92.0231    4.0931 C.3     1  UNL1        0.0414
      9 C          62.0119   96.8332   -1.7965 C.3     1  UNL1        0.0742
     10 C          61.0311   96.1306   -0.9052 C.ar    1  UNL1        0.1477
     11 N          59.5420   96.3098   -0.9188 N.ar    1  UNL1       -0.1332
     12 N          58.9578   95.4154    0.1342 N.ar    1  UNL1       -0.1315
     13 C          60.0859   94.6833    0.7985 C.ar    1  UNL1        0.1675
     14 N          61.3673   95.1254    0.1562 N.ar    1  UNL1       -0.2736
     15 C          62.7682   94.6868    0.4650 C.ar    1  UNL1        0.1005
     16 S          63.9754   95.2090   -0.2561 S.2     1  UNL1       -0.0687
     17 C          65.1869   94.5428    0.3258 C.ar    1  UNL1        0.0370
     18 C          64.7285   93.6090    1.4064 C.ar    1  UNL1        0.0135
     19 C          63.2336   93.6980    1.4925 C.ar    1  UNL1        0.0765
     20 C          62.4131   92.9035    2.4648 C.2     1  UNL1        0.2512
     21 O          63.1829   91.9902    3.3721 O.2     1  UNL1       -0.2698
     22 N          60.9246   92.9016    2.6499 N.am    1  UNL1       -0.2705
     23 C          59.8889   93.6937    1.9083 C.3     1  UNL1        0.1601
     24 C          59.7669   88.2898    7.6139 C.3     1  UNL1        0.2042
     25 F          59.3244   87.4323    6.4656 F       1  UNL1       -0.2306
     26 C          59.8864   89.4780    8.5218 C.3     1  UNL1        0.0590
     27 C          60.7822   89.4166    9.7233 C.3     1  UNL1        0.0756
     28 N          61.5585   88.1671   10.0171 N.3     1  UNL1       -0.2688
     29 C          61.4390   86.9791    9.1092 C.3     1  UNL1        0.0756
     30 C          60.5432   87.0404    7.9077 C.3     1  UNL1        0.0590
     31 C          62.4543   88.1058   11.2187 C.3     1  UNL1        0.0993
     32 C          62.7609   86.7844   11.8589 C.ar    1  UNL1       -0.0018
     33 C          62.2622   85.5148   11.2347 C.ar    1  UNL1        0.0179
     34 C          62.5688   84.1935   11.8749 C.ar    1  UNL1        0.1000
     35 N          63.3742   84.1415   13.1393 N.ar    1  UNL1       -0.2296
     36 C          63.8730   85.4111   13.7634 C.ar    1  UNL1        0.1251
     37 N          64.6784   85.3592   15.0278 N.pl3   1  UNL1       -0.3426
     38 C          63.5663   86.7325   13.1232 C.ar    1  UNL1        0.0310
     39 H          64.8796   84.4919   15.4480 H       1  UNL1        0.1437
     40 H          65.0057   86.1924   15.4374 H       1  UNL1        0.1437
@<TRIPOS>BOND
     1     9    10    1
     2    10    11   ar
     3    11    12   ar
     4    12    13   ar
     5    13    14   ar
     6    14    15    1
     7    15    16   ar
     8    16    17   ar
     9    17    18   ar
    10    18    19   ar
    11    19    20    1
    12    20    21    2
    13    20    22   am
    14    22     1    1
    15     1     2    1
    16     2     3    1
    17     3     4    1
    18     4     5   am
    19     5     6    2
    20     5    24    1
    21    24    25    1
    22    24    26    1
    23    26    27    1
    24    27    28    1
    25    28    31    1
    26    31    32    1
    27    32    33   ar
    28    33    34   ar
    29    34    35   ar
    30    35    36   ar
    31    36    37    1
    32    36    38   ar
    33    28    29    1
    34    29    30    1
    35     4     7    1
    36     7     8    1
    37    22    23    1
    38    14    10   ar
    39    19    15   ar
    40     8     1    1
    41    23    13    1
    42    30    24    1
    43    38    32   ar
    44    37    39    1
    45    37    40    1
@<TRIPOS>MOLECULE
*****
 40 45 0 0 0
SMALL
GASTEIGER

@<TRIPOS>ATOM
      1 C          59.5415   95.9881   -3.7737 C.3     1  UNL1        0.0795
      2 C          60.1604   95.7998   -2.4204 C.3     1  UNL1        0.0414
      3 C          61.6515   95.7125   -2.2832 C.3     1  UNL1        0.0952
      4 N          62.5239   95.8136   -3.4993 N.am    1  UNL1       -0.2773
      5 C          64.0150   95.7264   -3.3621 C.2     1  UNL1        0.2553
      6 O          64.8872   95.8274   -4.5782 O.2     1  UNL1       -0.2720
      7 C          61.9049   96.0019   -4.8526 C.3     1  UNL1        0.0952
      8 C          60.4138   96.0891   -4.9899 C.3     1  UNL1        0.0414
      9 C          52.0593   96.6074   -3.4253 C.3     1  UNL1        0.0742
     10 C          53.4133   96.6193   -2.7798 C.ar    1  UNL1        0.1477
     11 N          53.6946   96.8530   -1.3252 N.ar    1  UNL1       -0.1332
     12 N          55.1789   96.7778   -1.1220 N.ar    1  UNL1       -0.1315
     13 C          55.8150   96.4976   -2.4513 C.ar    1  UNL1        0.1675
     14 N          54.7238   96.3997   -3.4759 N.ar    1  UNL1       -0.2736
     15 C          54.8436   96.1332   -4.9472 C.ar    1  UNL1        0.1005
     16 S          53.6651   96.0592   -5.8722 S.2     1  UNL1       -0.0687
     17 C          54.1773   95.7792   -7.2539 C.ar    1  UNL1        0.0370
     18 C          55.6723   95.6800   -7.1829 C.ar    1  UNL1        0.0135
     19 C          56.0842   95.8989   -5.7572 C.ar    1  UNL1        0.0765
     20 C          57.5112   95.8731   -5.2961 C.2     1  UNL1        0.2512
     21 O          58.5346   95.6104   -6.3608 O.2     1  UNL1       -0.2698
     22 N          58.0503   96.0753   -3.9110 N.am    1  UNL1       -0.2705
     23 C          57.2954   96.3533   -2.6449 C.3     1  UNL1        0.1601
     24 C          64.6338   95.5381   -2.0088 C.3     1  UNL1        0.2042
     25 F          65.2726   96.8348   -2.4092 F       1  UNL1       -0.2306
     26 C          63.7801   94.3067   -2.0785 C.3     1  UNL1        0.0590
     27 C          63.7671   93.3373   -0.9338 C.3     1  UNL1        0.0756
     28 N          64.6078   93.5994    0.2806 N.3     1  UNL1       -0.2688
     29 C          65.4615   94.8308    0.3501 C.3     1  UNL1        0.0756
     30 C          65.4746   95.8001   -0.7945 C.3     1  UNL1        0.0590
     31 C          64.5948   92.6301    1.4252 C.3     1  UNL1        0.0993
     32 C          63.3286   92.3943    2.1939 C.ar    1  UNL1       -0.0018
     33 C          63.2854   91.3442    3.2642 C.ar    1  UNL1        0.0179
     34 C          62.0191   91.1084    4.0329 C.ar    1  UNL1        0.1000
     35 N          60.7960   91.9227    3.7314 N.ar    1  UNL1       -0.2296
     36 C          60.8392   92.9728    2.6611 C.ar    1  UNL1        0.1251
     37 N          59.6161   93.7871    2.3596 N.pl3   1  UNL1       -0.3426
     38 C          62.1055   93.2086    1.8924 C.ar    1  UNL1        0.0310
     39 H          58.7850   93.6323    2.8641 H       1  UNL1        0.1437
     40 H          59.6444   94.4763    1.6571 H       1  UNL1        0.1437
@<TRIPOS>BOND
     1     9    10    1
     2    10    11   ar
     3    11    12   ar
     4    12    13   ar
     5    13    14   ar
     6    14    15    1
     7    15    16   ar
     8    16    17   ar
     9    17    18   ar
    10    18    19   ar
    11    19    20    1
    12    20    21    2
    13    20    22   am
    14    22     1    1
    15     1     2    1
    16     2     3    1
    17     3     4    1
    18     4     5   am
    19     5     6    2
    20     5    24    1
    21    24    25    1
    22    24    26    1
    23    26    27    1
    24    27    28    1
    25    28    31    1
    26    31    32    1
    27    32    33   ar
    28    33    34   ar
    29    34    35   ar
    30    35    36   ar
    31    36    37    1
    32    36    38   ar
    33    28    29    1
    34    29    30    1
    35     4     7    1
    36     7     8    1
    37    22    23    1
    38    14    10   ar
    39    19    15   ar
    40     8     1    1
    41    23    13    1
    42    30    24    1
    43    38    32   ar
    44    37    39    1
    45    37    40    1
@<TRIPOS>MOLECULE
*****
 40 45 0 0 0
SMALL
GASTEIGER

@<TRIPOS>ATOM
      1 C          60.6086   92.0095    3.5705 C.3     1  UNL1        0.0795
      2 C          61.4840   91.0198    4.2805 C.3     1  UNL1        0.0414
      3 C          60.9102   90.1489    5.3585 C.3     1  UNL1        0.0952
      4 N          59.4608   90.2676    5.7265 N.am    1  UNL1       -0.2773
      5 C          58.8870   89.3966    6.8045 C.2     1  UNL1        0.2553
      6 O          57.4377   89.5153    7.1725 O.2     1  UNL1       -0.2720
      7 C          58.5854   91.2572    5.0164 C.3     1  UNL1        0.0952
      8 C          59.1592   92.1282    3.9385 C.3     1  UNL1        0.0414
      9 C          64.4228   96.1381   -1.4189 C.3     1  UNL1        0.0742
     10 C          64.3712   95.2260   -0.2292 C.ar    1  UNL1        0.1477
     11 N          65.5509   94.7289    0.5525 N.ar    1  UNL1       -0.1332
     12 N          65.0396   93.8464    1.6525 N.ar    1  UNL1       -0.1315
     13 C          63.5439   93.7981    1.5506 C.ar    1  UNL1        0.1675
     14 N          63.1307   94.6508    0.3876 N.ar    1  UNL1       -0.2736
     15 C          61.7484   94.9261   -0.1258 C.ar    1  UNL1        0.1005
     16 S          61.4659   95.8046   -1.3083 S.2     1  UNL1       -0.0687
     17 C          59.9808   95.8383   -1.5164 C.ar    1  UNL1        0.0370
     18 C          59.3455   94.9806   -0.4625 C.ar    1  UNL1        0.0135
     19 C          60.4379   94.4168    0.3970 C.ar    1  UNL1        0.0765
     20 C          60.1861   93.5064    1.5621 C.2     1  UNL1        0.2512
     21 O          58.7476   93.1786    1.8329 O.2     1  UNL1       -0.2698
     22 N          61.1824   92.8805    2.4924 N.am    1  UNL1       -0.2705
     23 C          62.6768   93.0103    2.4873 C.3     1  UNL1        0.1601
     24 C          59.7624   88.4070    7.5145 C.3     1  UNL1        0.2042
     25 F          59.3116   87.5704    6.3540 F       1  UNL1       -0.2306
     26 C          59.9092   89.5874    8.4284 C.3     1  UNL1        0.0590
     27 C          60.7749   89.4875    9.6493 C.3     1  UNL1        0.0756
     28 N          61.4938   88.2072    9.9563 N.3     1  UNL1       -0.2688
     29 C          61.3470   87.0269    9.0424 C.3     1  UNL1        0.0756
     30 C          60.4813   87.1268    7.8215 C.3     1  UNL1        0.0590
     31 C          62.3595   88.1073   11.1773 C.3     1  UNL1        0.0993
     32 C          62.6730   86.7641   11.7665 C.ar    1  UNL1       -0.0018
     33 C          62.2060   85.5157   11.0784 C.ar    1  UNL1        0.0179
     34 C          62.5195   84.1724   11.6677 C.ar    1  UNL1        0.1000
     35 N          63.3001   84.0774   12.9450 N.ar    1  UNL1       -0.2296
     36 C          63.7671   85.3258   13.6331 C.ar    1  UNL1        0.1251
     37 N          64.5477   85.2308   14.9105 N.pl3   1  UNL1       -0.3426
     38 C          63.4536   86.6691   13.0439 C.ar    1  UNL1        0.0310
     39 H          64.7535   84.3492   15.2972 H       1  UNL1        0.1437
     40 H          64.8542   86.0502   15.3621 H       1  UNL1        0.1437
@<TRIPOS>BOND
     1     9    10    1
     2    10    11   ar
     3    11    12   ar
     4    12    13   ar
     5    13    14   ar
     6    14    15    1
     7    15    16   ar
     8    16    17   ar
     9    17    18   ar
    10    18    19   ar
    11    19    20    1
    12    20    21    2
    13    20    22   am
    14    22     1    1
    15     1     2    1
    16     2     3    1
    17     3     4    1
    18     4     5   am
    19     5     6    2
    20     5    24    1
    21    24    25    1
    22    24    26    1
    23    26    27    1
    24    27    28    1
    25    28    31    1
    26    31    32    1
    27    32    33   ar
    28    33    34   ar
    29    34    35   ar
    30    35    36   ar
    31    36    37    1
    32    36    38   ar
    33    28    29    1
    34    29    30    1
    35     4     7    1
    36     7     8    1
    37    22    23    1
    38    14    10   ar
    39    19    15   ar
    40     8     1    1
    41    23    13    1
    42    30    24    1
    43    38    32   ar
    44    37    39    1
    45    37    40    1
