@<TRIPOS>MOLECULE
*****
 29 32 0 0 0
SMALL
GASTEIGER

@<TRIPOS>ATOM
      1 C          61.6218   85.6270   10.9015 C.3     1  UNL1        0.2329
      2 C          61.7038   87.1148   10.7292 C.ar    1  UNL1        0.0317
      3 C          62.6402   87.9181   11.5824 C.ar    1  UNL1        0.0002
      4 C          62.7222   89.4059   11.4101 C.ar    1  UNL1       -0.0001
      5 C          61.8678   90.0905   10.3846 C.ar    1  UNL1        0.0008
      6 C          60.9314   89.2871    9.5314 C.ar    1  UNL1        0.0112
      7 C          60.8495   87.7993    9.7038 C.ar    1  UNL1        0.0572
      8 CL         59.9131   86.9960    8.8506 Cl      1  UNL1       -0.0825
      9 C          63.6585   90.2093   12.2632 C.ar    1  UNL1        0.0022
     10 C          64.0541   89.7074   13.6203 C.ar    1  UNL1        0.0001
     11 C          64.9904   90.5108   14.4735 C.ar    1  UNL1        0.0023
     12 C          65.5312   91.8160   13.9695 C.ar    1  UNL1        0.0296
     13 C          65.1356   92.3178   12.6125 C.ar    1  UNL1        0.1401
     14 F          65.6765   93.6231   12.1086 F       1  UNL1       -0.2042
     15 C          64.1993   91.5145   11.7593 C.ar    1  UNL1        0.0296
     16 O          62.8720   84.8272   11.1188 O.3     1  UNL1       -0.4688
     17 N          64.3239   85.4576   16.0681 N.pl3   1  UNL1       -0.3440
     18 C          63.8915   84.5620   14.9451 C.ar    1  UNL1        0.1068
     19 C          63.5979   85.1423   13.5935 C.ar    1  UNL1        0.0705
     20 C          63.1655   84.2468   12.4705 C.ar    1  UNL1        0.1641
     21 C          63.0267   82.7708   12.6993 C.ar    1  UNL1        0.1739
     22 N          62.6223   81.6480   11.7906 N.ar    1  UNL1       -0.1224
     23 N          62.6660   80.3737   12.5807 N.ar    1  UNL1       -0.0405
     24 N          63.0973   80.7090   13.9777 N.ar    1  UNL1       -0.1093
     25 C          63.3203   82.1905   14.0510 C.ar    1  UNL1        0.1872
     26 N          63.7526   83.0861   15.1739 N.ar    1  UNL1       -0.3248
     27 H          64.4150   86.4263   15.9180 H       1  UNL1        0.1437
     28 H          64.5165   85.0767   16.9553 H       1  UNL1        0.1437
     29 H          63.9453   82.7052   16.0611 H       1  UNL1        0.1686
@<TRIPOS>BOND
     1    17    18    1
     2    18    19   ar
     3    19    20   ar
     4    20    16    1
     5    16     1    1
     6     1     2    1
     7     2     3   ar
     8     3     4   ar
     9     4     9    1
    10     9    10   ar
    11    10    11   ar
    12    11    12   ar
    13    12    13   ar
    14    13    14    1
    15    13    15   ar
    16     4     5   ar
    17     5     6   ar
    18     6     7   ar
    19     7     8    1
    20    20    21   ar
    21    21    22   ar
    22    22    23   ar
    23    23    24   ar
    24    24    25   ar
    25    25    26   ar
    26    26    18   ar
    27     7     2   ar
    28    25    21    1
    29    15     9   ar
    30    17    27    1
    31    17    28    1
    32    26    29    1
@<TRIPOS>MOLECULE
*****
 29 32 0 0 0
SMALL
GASTEIGER

@<TRIPOS>ATOM
      1 C          61.6373   85.4830   10.5975 C.3     1  UNL1        0.2329
      2 C          61.6497   86.9798   10.5009 C.ar    1  UNL1        0.0317
      3 C          62.5781   87.7796   11.3660 C.ar    1  UNL1        0.0002
      4 C          62.5906   89.2764   11.2694 C.ar    1  UNL1       -0.0001
      5 C          61.6745   89.9735   10.3076 C.ar    1  UNL1        0.0008
      6 C          60.7460   89.1738    9.4425 C.ar    1  UNL1        0.0112
      7 C          60.7337   87.6769    9.5392 C.ar    1  UNL1        0.0572
      8 CL         59.8053   86.8772    8.6741 Cl      1  UNL1       -0.0825
      9 C          63.5189   90.0762   12.1345 C.ar    1  UNL1        0.0022
     10 C          63.9023   89.5685   13.4929 C.ar    1  UNL1        0.0001
     11 C          64.8307   90.3682   14.3581 C.ar    1  UNL1        0.0023
     12 C          65.3758   91.6757   13.8647 C.ar    1  UNL1        0.0296
     13 C          64.9925   92.1834   12.5063 C.ar    1  UNL1        0.1401
     14 F          65.5376   93.4909   12.0131 F       1  UNL1       -0.2042
     15 C          64.0640   91.3837   11.6412 C.ar    1  UNL1        0.0296
     16 O          62.8585   84.7519   11.0708 O.3     1  UNL1       -0.4688
     17 N          62.0608   80.2438   13.5288 N.pl3   1  UNL1       -0.3440
     18 C          62.4119   81.7016   13.5701 C.ar    1  UNL1        0.1068
     19 C          62.4597   82.4979   12.2999 C.ar    1  UNL1        0.0705
     20 C          62.8108   83.9557   12.3412 C.ar    1  UNL1        0.1641
     21 C          63.1140   84.6171   13.6529 C.ar    1  UNL1        0.1739
     22 N          63.4881   86.0268   14.0032 N.ar    1  UNL1       -0.1224
     23 N          63.6715   86.1018   15.4901 N.ar    1  UNL1       -0.0405
     24 N          63.4108   84.7384   16.0586 N.ar    1  UNL1       -0.1093
     25 C          63.0662   83.8208   14.9232 C.ar    1  UNL1        0.1872
     26 N          62.7152   82.3631   14.8818 N.ar    1  UNL1       -0.3248
     27 H          61.8617   79.8096   12.6679 H       1  UNL1        0.1437
     28 H          62.0294   79.7212   14.3625 H       1  UNL1        0.1437
     29 H          62.6838   81.8404   15.7155 H       1  UNL1        0.1686
@<TRIPOS>BOND
     1    17    18    1
     2    18    19   ar
     3    19    20   ar
     4    20    16    1
     5    16     1    1
     6     1     2    1
     7     2     3   ar
     8     3     4   ar
     9     4     9    1
    10     9    10   ar
    11    10    11   ar
    12    11    12   ar
    13    12    13   ar
    14    13    14    1
    15    13    15   ar
    16     4     5   ar
    17     5     6   ar
    18     6     7   ar
    19     7     8    1
    20    20    21   ar
    21    21    22   ar
    22    22    23   ar
    23    23    24   ar
    24    24    25   ar
    25    25    26   ar
    26    26    18   ar
    27     7     2   ar
    28    25    21    1
    29    15     9   ar
    30    17    27    1
    31    17    28    1
    32    26    29    1
@<TRIPOS>MOLECULE
*****
 29 32 0 0 0
SMALL
GASTEIGER

@<TRIPOS>ATOM
      1 C          62.8581   90.2599   12.2221 C.3     1  UNL1        0.2329
      2 C          62.1740   89.0620   11.6332 C.ar    1  UNL1        0.0317
      3 C          62.8220   87.7118   11.7166 C.ar    1  UNL1        0.0002
      4 C          62.1379   86.5138   11.1277 C.ar    1  UNL1       -0.0001
      5 C          60.8056   86.6660   10.4553 C.ar    1  UNL1        0.0008
      6 C          60.1576   88.0162   10.3718 C.ar    1  UNL1        0.0112
      7 C          60.8418   89.2142   10.9608 C.ar    1  UNL1        0.0572
      8 CL         60.1938   90.5644   10.8773 Cl      1  UNL1       -0.0825
      9 C          62.7859   85.1636   11.2111 C.ar    1  UNL1        0.0022
     10 C          63.2950   84.4979    9.9670 C.ar    1  UNL1        0.0001
     11 C          63.9430   83.1476   10.0503 C.ar    1  UNL1        0.0023
     12 C          64.0819   82.4631   11.3778 C.ar    1  UNL1        0.0296
     13 C          63.5728   83.1288   12.6218 C.ar    1  UNL1        0.1401
     14 F          63.7117   82.4441   13.9492 F       1  UNL1       -0.2042
     15 C          62.9248   84.4790   12.5385 C.ar    1  UNL1        0.0296
     16 O          64.1210   90.0888   13.0132 O.3     1  UNL1       -0.4688
     17 N          66.4602   92.9782   16.6437 N.pl3   1  UNL1       -0.3440
     18 C          66.1072   92.7335   15.2064 C.ar    1  UNL1        0.1068
     19 C          65.2906   91.5336   14.8284 C.ar    1  UNL1        0.0705
     20 C          64.9377   91.2889   13.3911 C.ar    1  UNL1        0.1641
     21 C          65.4015   92.2444   12.3319 C.ar    1  UNL1        0.1739
     22 N          65.2100   92.2639   10.8443 N.ar    1  UNL1       -0.1224
     23 N          65.9083   93.4761   10.3030 N.ar    1  UNL1       -0.0405
     24 N          66.5314   94.2057   11.4560 N.ar    1  UNL1       -0.1093
     25 C          66.2181   93.4445   12.7100 C.ar    1  UNL1        0.1872
     26 N          66.5710   93.6891   14.1472 N.ar    1  UNL1       -0.3248
     27 H          66.1558   92.3511   17.3389 H       1  UNL1        0.1437
     28 H          66.9962   93.7658   16.8918 H       1  UNL1        0.1437
     29 H          67.1070   94.4767   14.3953 H       1  UNL1        0.1686
@<TRIPOS>BOND
     1    17    18    1
     2    18    19   ar
     3    19    20   ar
     4    20    16    1
     5    16     1    1
     6     1     2    1
     7     2     3   ar
     8     3     4   ar
     9     4     9    1
    10     9    10   ar
    11    10    11   ar
    12    11    12   ar
    13    12    13   ar
    14    13    14    1
    15    13    15   ar
    16     4     5   ar
    17     5     6   ar
    18     6     7   ar
    19     7     8    1
    20    20    21   ar
    21    21    22   ar
    22    22    23   ar
    23    23    24   ar
    24    24    25   ar
    25    25    26   ar
    26    26    18   ar
    27     7     2   ar
    28    25    21    1
    29    15     9   ar
    30    17    27    1
    31    17    28    1
    32    26    29    1
@<TRIPOS>MOLECULE
*****
 29 32 0 0 0
SMALL
GASTEIGER

@<TRIPOS>ATOM
      1 C          61.5549   89.9527   10.3695 C.3     1  UNL1        0.2329
      2 C          61.3945   88.5506    9.8610 C.ar    1  UNL1        0.0317
      3 C          62.1723   87.4318   10.4881 C.ar    1  UNL1        0.0002
      4 C          62.0119   86.0297    9.9796 C.ar    1  UNL1       -0.0001
      5 C          61.0737   85.7465    8.8439 C.ar    1  UNL1        0.0008
      6 C          60.2959   86.8654    8.2168 C.ar    1  UNL1        0.0112
      7 C          60.4564   88.2674    8.7253 C.ar    1  UNL1        0.0572
      8 CL         59.6786   89.3862    8.0982 Cl      1  UNL1       -0.0825
      9 C          62.7896   84.9109   10.6066 C.ar    1  UNL1        0.0022
     10 C          63.5277   83.9332    9.7409 C.ar    1  UNL1        0.0001
     11 C          64.3055   82.8143   10.3679 C.ar    1  UNL1        0.0023
     12 C          64.3451   82.6731   11.8607 C.ar    1  UNL1        0.0296
     13 C          63.6071   83.6507   12.7264 C.ar    1  UNL1        0.1401
     14 F          63.6468   83.5094   14.2192 F       1  UNL1       -0.2042
     15 C          62.8293   84.7696   12.0994 C.ar    1  UNL1        0.0296
     16 O          62.7878   90.7369   10.0305 O.3     1  UNL1       -0.4688
     17 N          66.8370   93.6006   11.5809 N.pl3   1  UNL1       -0.3440
     18 C          65.7143   92.6582   11.8997 C.ar    1  UNL1        0.1068
     19 C          64.8124   92.1687   10.8058 C.ar    1  UNL1        0.0705
     20 C          63.6897   91.2264   11.1246 C.ar    1  UNL1        0.1641
     21 C          63.4690   90.7736   12.5375 C.ar    1  UNL1        0.1739
     22 N          62.4526   89.8563   13.1503 N.ar    1  UNL1       -0.1224
     23 N          62.7264   89.7789   14.6231 N.ar    1  UNL1       -0.0405
     24 N          63.9120   90.6484   14.9205 N.ar    1  UNL1       -0.1093
     25 C          64.3709   91.2632   13.6315 C.ar    1  UNL1        0.1872
     26 N          65.4936   92.2055   13.3126 N.ar    1  UNL1       -0.3248
     27 H          66.9819   93.8978   10.6536 H       1  UNL1        0.1437
     28 H          67.4290   93.9219   12.2990 H       1  UNL1        0.1437
     29 H          66.0856   92.5268   14.0307 H       1  UNL1        0.1686
@<TRIPOS>BOND
     1    17    18    1
     2    18    19   ar
     3    19    20   ar
     4    20    16    1
     5    16     1    1
     6     1     2    1
     7     2     3   ar
     8     3     4   ar
     9     4     9    1
    10     9    10   ar
    11    10    11   ar
    12    11    12   ar
    13    12    13   ar
    14    13    14    1
    15    13    15   ar
    16     4     5   ar
    17     5     6   ar
    18     6     7   ar
    19     7     8    1
    20    20    21   ar
    21    21    22   ar
    22    22    23   ar
    23    23    24   ar
    24    24    25   ar
    25    25    26   ar
    26    26    18   ar
    27     7     2   ar
    28    25    21    1
    29    15     9   ar
    30    17    27    1
    31    17    28    1
    32    26    29    1
@<TRIPOS>MOLECULE
*****
 29 32 0 0 0
SMALL
GASTEIGER

@<TRIPOS>ATOM
      1 C          61.7633   90.1657   10.4556 C.3     1  UNL1        0.2329
      2 C          61.4994   88.7730    9.9649 C.ar    1  UNL1        0.0317
      3 C          62.2523   87.6159   10.5515 C.ar    1  UNL1        0.0002
      4 C          61.9885   86.2232   10.0608 C.ar    1  UNL1       -0.0001
      5 C          60.9717   85.9877    8.9833 C.ar    1  UNL1        0.0008
      6 C          60.2188   87.1448    8.3967 C.ar    1  UNL1        0.0112
      7 C          60.4827   88.5375    8.8875 C.ar    1  UNL1        0.0572
      8 CL         59.7298   89.6946    8.3009 Cl      1  UNL1       -0.0825
      9 C          62.7413   85.0660   10.6473 C.ar    1  UNL1        0.0022
     10 C          63.4902   84.1260    9.7497 C.ar    1  UNL1        0.0001
     11 C          64.2431   82.9688   10.3362 C.ar    1  UNL1        0.0023
     12 C          64.2470   82.7516   11.8204 C.ar    1  UNL1        0.0296
     13 C          63.4982   83.6915   12.7180 C.ar    1  UNL1        0.1401
     14 F          63.5022   83.4742   14.2022 F       1  UNL1       -0.2042
     15 C          62.7453   84.8487   12.1315 C.ar    1  UNL1        0.0296
     16 O          63.1638   90.7025   10.4715 O.3     1  UNL1       -0.4688
     17 N          63.4398   90.2127   15.6372 N.pl3   1  UNL1       -0.3440
     18 C          63.9588   90.8004   14.3584 C.ar    1  UNL1        0.1068
     19 C          63.3018   90.4576   13.0544 C.ar    1  UNL1        0.0705
     20 C          63.8209   91.0454   11.7756 C.ar    1  UNL1        0.1641
     21 C          64.9970   91.9760   11.8011 C.ar    1  UNL1        0.1739
     22 N          65.7248   92.7038   10.7099 N.ar    1  UNL1       -0.1224
     23 N          66.8316   93.4965   11.3397 N.ar    1  UNL1       -0.0405
     24 N          66.7879   93.2586   12.8201 N.ar    1  UNL1       -0.1093
     25 C          65.6540   92.3189   13.1052 C.ar    1  UNL1        0.1872
     26 N          65.1349   91.7311   14.3839 N.ar    1  UNL1       -0.3248
     27 H          62.6678   89.6019   15.6205 H       1  UNL1        0.1437
     28 H          63.8710   90.4377   16.4931 H       1  UNL1        0.1437
     29 H          65.5662   91.9561   15.2398 H       1  UNL1        0.1686
@<TRIPOS>BOND
     1    17    18    1
     2    18    19   ar
     3    19    20   ar
     4    20    16    1
     5    16     1    1
     6     1     2    1
     7     2     3   ar
     8     3     4   ar
     9     4     9    1
    10     9    10   ar
    11    10    11   ar
    12    11    12   ar
    13    12    13   ar
    14    13    14    1
    15    13    15   ar
    16     4     5   ar
    17     5     6   ar
    18     6     7   ar
    19     7     8    1
    20    20    21   ar
    21    21    22   ar
    22    22    23   ar
    23    23    24   ar
    24    24    25   ar
    25    25    26   ar
    26    26    18   ar
    27     7     2   ar
    28    25    21    1
    29    15     9   ar
    30    17    27    1
    31    17    28    1
    32    26    29    1
@<TRIPOS>MOLECULE
*****
 29 32 0 0 0
SMALL
GASTEIGER

@<TRIPOS>ATOM
      1 C          63.9175   89.4745   13.4454 C.3     1  UNL1        0.2329
      2 C          63.4947   88.1274   12.9388 C.ar    1  UNL1        0.0317
      3 C          62.6911   88.0190   11.6769 C.ar    1  UNL1        0.0002
      4 C          62.2683   86.6719   11.1704 C.ar    1  UNL1       -0.0001
      5 C          62.6490   85.4331   11.9259 C.ar    1  UNL1        0.0008
      6 C          63.4525   85.5415   13.1878 C.ar    1  UNL1        0.0112
      7 C          63.8753   86.8887   13.6943 C.ar    1  UNL1        0.0572
      8 CL         64.6789   86.9971   14.9562 Cl      1  UNL1       -0.0825
      9 C          61.4648   86.5634    9.9085 C.ar    1  UNL1        0.0022
     10 C          60.1572   87.2886    9.7872 C.ar    1  UNL1        0.0001
     11 C          59.3536   87.1801    8.5252 C.ar    1  UNL1        0.0023
     12 C          59.8576   86.3465    7.3845 C.ar    1  UNL1        0.0296
     13 C          61.1650   85.6214    7.5058 C.ar    1  UNL1        0.1401
     14 F          61.6689   84.7878    6.3651 F       1  UNL1       -0.2042
     15 C          61.9686   85.7298    8.7677 C.ar    1  UNL1        0.0296
     16 O          63.6159   90.7057   12.6435 O.3     1  UNL1       -0.4688
     17 N          66.3068   93.8811    9.5329 N.pl3   1  UNL1       -0.3440
     18 C          66.0151   93.3447   10.9030 C.ar    1  UNL1        0.1068
     19 C          64.9614   92.2935   11.0882 C.ar    1  UNL1        0.0705
     20 C          64.6697   91.7570   12.4584 C.ar    1  UNL1        0.1641
     21 C          65.4318   92.2720   13.6433 C.ar    1  UNL1        0.1739
     22 N          65.3645   91.9353   15.1034 N.ar    1  UNL1       -0.1224
     23 N          66.3766   92.7786   15.8206 N.ar    1  UNL1       -0.0405
     24 N          67.0695   93.6364   14.8038 N.ar    1  UNL1       -0.1093
     25 C          66.4856   93.3233   13.4580 C.ar    1  UNL1        0.1872
     26 N          66.7772   93.8597   12.0879 N.ar    1  UNL1       -0.3248
     27 H          65.8067   93.5432    8.7551 H       1  UNL1        0.1437
     28 H          66.9985   94.5711    9.4114 H       1  UNL1        0.1437
     29 H          67.4689   94.5497   11.9664 H       1  UNL1        0.1686
@<TRIPOS>BOND
     1    17    18    1
     2    18    19   ar
     3    19    20   ar
     4    20    16    1
     5    16     1    1
     6     1     2    1
     7     2     3   ar
     8     3     4   ar
     9     4     9    1
    10     9    10   ar
    11    10    11   ar
    12    11    12   ar
    13    12    13   ar
    14    13    14    1
    15    13    15   ar
    16     4     5   ar
    17     5     6   ar
    18     6     7   ar
    19     7     8    1
    20    20    21   ar
    21    21    22   ar
    22    22    23   ar
    23    23    24   ar
    24    24    25   ar
    25    25    26   ar
    26    26    18   ar
    27     7     2   ar
    28    25    21    1
    29    15     9   ar
    30    17    27    1
    31    17    28    1
    32    26    29    1
@<TRIPOS>MOLECULE
*****
 29 32 0 0 0
SMALL
GASTEIGER

@<TRIPOS>ATOM
      1 C          64.0367   89.6262   14.2665 C.3     1  UNL1        0.2329
      2 C          63.6865   89.9836   12.8524 C.ar    1  UNL1        0.0317
      3 C          62.8454   89.0530   12.0299 C.ar    1  UNL1        0.0002
      4 C          62.4953   89.4104   10.6158 C.ar    1  UNL1       -0.0001
      5 C          62.9863   90.6985   10.0242 C.ar    1  UNL1        0.0008
      6 C          63.8274   91.6291   10.8467 C.ar    1  UNL1        0.0112
      7 C          64.1775   91.2716   12.2608 C.ar    1  UNL1        0.0572
      8 CL         65.0187   92.2022   13.0833 Cl      1  UNL1       -0.0825
      9 C          61.6542   88.4799    9.7933 C.ar    1  UNL1        0.0022
     10 C          61.9397   87.0073    9.7995 C.ar    1  UNL1        0.0001
     11 C          61.0986   86.0767    8.9770 C.ar    1  UNL1        0.0023
     12 C          59.9719   86.6188    8.1482 C.ar    1  UNL1        0.0296
     13 C          59.6864   88.0913    8.1420 C.ar    1  UNL1        0.1401
     14 F          58.5597   88.6333    7.3132 F       1  UNL1       -0.2042
     15 C          60.5275   89.0219    8.9645 C.ar    1  UNL1        0.0296
     16 O          64.8802   88.4183   14.5478 O.3     1  UNL1       -0.4688
     17 N          63.7772   83.4887   13.3297 N.pl3   1  UNL1       -0.3440
     18 C          63.6768   84.6461   14.2787 C.ar    1  UNL1        0.1068
     19 C          64.3287   85.9534   13.9388 C.ar    1  UNL1        0.0705
     20 C          64.2283   87.1108   14.8878 C.ar    1  UNL1        0.1641
     21 C          63.4759   86.9606   16.1767 C.ar    1  UNL1        0.1739
     22 N          63.2090   87.9177   17.3005 N.ar    1  UNL1       -0.1224
     23 N          62.3922   87.2017   18.3349 N.ar    1  UNL1       -0.0405
     24 N          62.1542   85.8022   17.8505 N.ar    1  UNL1       -0.1093
     25 C          62.8239   85.6532   16.5166 C.ar    1  UNL1        0.1872
     26 N          62.9244   84.4959   15.5676 N.ar    1  UNL1       -0.3248
     27 H          64.2710   83.5872   12.4838 H       1  UNL1        0.1437
     28 H          63.3493   82.6306   13.5529 H       1  UNL1        0.1437
     29 H          62.4965   83.6378   15.7907 H       1  UNL1        0.1686
@<TRIPOS>BOND
     1    17    18    1
     2    18    19   ar
     3    19    20   ar
     4    20    16    1
     5    16     1    1
     6     1     2    1
     7     2     3   ar
     8     3     4   ar
     9     4     9    1
    10     9    10   ar
    11    10    11   ar
    12    11    12   ar
    13    12    13   ar
    14    13    14    1
    15    13    15   ar
    16     4     5   ar
    17     5     6   ar
    18     6     7   ar
    19     7     8    1
    20    20    21   ar
    21    21    22   ar
    22    22    23   ar
    23    23    24   ar
    24    24    25   ar
    25    25    26   ar
    26    26    18   ar
    27     7     2   ar
    28    25    21    1
    29    15     9   ar
    30    17    27    1
    31    17    28    1
    32    26    29    1
@<TRIPOS>MOLECULE
*****
 29 32 0 0 0
SMALL
GASTEIGER

@<TRIPOS>ATOM
      1 C          62.8137   90.0537   12.4464 C.3     1  UNL1        0.2329
      2 C          62.5770   88.7718   11.7042 C.ar    1  UNL1        0.0317
      3 C          62.9412   87.4611   12.3362 C.ar    1  UNL1        0.0002
      4 C          62.7046   86.1792   11.5940 C.ar    1  UNL1       -0.0001
      5 C          62.1038   86.2081   10.2198 C.ar    1  UNL1        0.0008
      6 C          61.7396   87.5188    9.5879 C.ar    1  UNL1        0.0112
      7 C          61.9763   88.8007   10.3301 C.ar    1  UNL1        0.0572
      8 CL         61.6121   90.1114    9.6982 Cl      1  UNL1       -0.0825
      9 C          63.0687   84.8685   12.2259 C.ar    1  UNL1        0.0022
     10 C          63.7432   84.8434   13.5655 C.ar    1  UNL1        0.0001
     11 C          64.1074   83.5327   14.1975 C.ar    1  UNL1        0.0023
     12 C          63.7970   82.2470   13.4897 C.ar    1  UNL1        0.0296
     13 C          63.1226   82.2721   12.1502 C.ar    1  UNL1        0.1401
     14 F          62.8123   80.9864   11.4426 F       1  UNL1       -0.2042
     15 C          62.7584   83.5828   11.5183 C.ar    1  UNL1        0.0296
     16 O          64.1138   90.2781   13.1600 O.3     1  UNL1       -0.4688
     17 N          65.7201   93.9437    9.8457 N.pl3   1  UNL1       -0.3440
     18 C          65.7247   93.3427   11.2201 C.ar    1  UNL1        0.1068
     19 C          64.9170   92.1109   11.5029 C.ar    1  UNL1        0.0705
     20 C          64.9217   91.5100   12.8773 C.ar    1  UNL1        0.1641
     21 C          65.7342   92.1410   13.9689 C.ar    1  UNL1        0.1739
     22 N          65.9332   91.7769   15.4103 N.ar    1  UNL1       -0.1224
     23 N          66.8641   92.7837   16.0184 N.ar    1  UNL1       -0.0405
     24 N          67.2403   93.7701   14.9528 N.ar    1  UNL1       -0.1093
     25 C          66.5420   93.3729   13.6861 C.ar    1  UNL1        0.1872
     26 N          66.5372   93.9738   12.3117 N.ar    1  UNL1       -0.3248
     27 H          65.1868   93.5295    9.1292 H       1  UNL1        0.1437
     28 H          66.2503   94.7522    9.6602 H       1  UNL1        0.1437
     29 H          67.0674   94.7823   12.1261 H       1  UNL1        0.1686
@<TRIPOS>BOND
     1    17    18    1
     2    18    19   ar
     3    19    20   ar
     4    20    16    1
     5    16     1    1
     6     1     2    1
     7     2     3   ar
     8     3     4   ar
     9     4     9    1
    10     9    10   ar
    11    10    11   ar
    12    11    12   ar
    13    12    13   ar
    14    13    14    1
    15    13    15   ar
    16     4     5   ar
    17     5     6   ar
    18     6     7   ar
    19     7     8    1
    20    20    21   ar
    21    21    22   ar
    22    22    23   ar
    23    23    24   ar
    24    24    25   ar
    25    25    26   ar
    26    26    18   ar
    27     7     2   ar
    28    25    21    1
    29    15     9   ar
    30    17    27    1
    31    17    28    1
    32    26    29    1
@<TRIPOS>MOLECULE
*****
 29 32 0 0 0
SMALL
GASTEIGER

@<TRIPOS>ATOM
      1 C          64.2534   88.9469   14.0054 C.3     1  UNL1        0.2329
      2 C          63.6615   87.7877   13.2597 C.ar    1  UNL1        0.0317
      3 C          62.8161   88.0305   12.0446 C.ar    1  UNL1        0.0002
      4 C          62.2243   86.8713   11.2989 C.ar    1  UNL1       -0.0001
      5 C          62.4778   85.4693   11.7683 C.ar    1  UNL1        0.0008
      6 C          63.3232   85.2265   12.9834 C.ar    1  UNL1        0.0112
      7 C          63.9151   86.3858   13.7290 C.ar    1  UNL1        0.0572
      8 CL         64.7605   86.1430   14.9441 Cl      1  UNL1       -0.0825
      9 C          61.3789   87.1140   10.0839 C.ar    1  UNL1        0.0022
     10 C          60.8001   88.4749    9.8325 C.ar    1  UNL1        0.0001
     11 C          59.9547   88.7176    8.6175 C.ar    1  UNL1        0.0023
     12 C          59.6880   87.5994    7.6538 C.ar    1  UNL1        0.0296
     13 C          60.2668   86.2386    7.9052 C.ar    1  UNL1        0.1401
     14 F          60.0001   85.1205    6.9415 F       1  UNL1       -0.2042
     15 C          61.1122   85.9959    9.1202 C.ar    1  UNL1        0.0296
     16 O          64.1316   90.3356   13.4518 O.3     1  UNL1       -0.4688
     17 N          68.0660   92.2308   16.2677 N.pl3   1  UNL1       -0.3440
     18 C          67.2269   92.2579   15.0246 C.ar    1  UNL1        0.1068
     19 C          66.0988   91.2832   14.8597 C.ar    1  UNL1        0.0705
     20 C          65.2597   91.3104   13.6166 C.ar    1  UNL1        0.1641
     21 C          65.5489   92.3123   12.5384 C.ar    1  UNL1        0.1739
     22 N          64.8983   92.5761   11.2128 N.ar    1  UNL1       -0.1224
     23 N          65.6245   93.7139   10.5584 N.ar    1  UNL1       -0.0405
     24 N          66.7238   94.1532   11.4796 N.ar    1  UNL1       -0.1093
     25 C          66.6771   93.2870   12.7033 C.ar    1  UNL1        0.1872
     26 N          67.5161   93.2598   13.9464 N.ar    1  UNL1       -0.3248
     27 H          67.8763   91.5732   16.9754 H       1  UNL1        0.1437
     28 H          68.8065   92.8705   16.3759 H       1  UNL1        0.1437
     29 H          68.2566   93.8995   14.0546 H       1  UNL1        0.1686
@<TRIPOS>BOND
     1    17    18    1
     2    18    19   ar
     3    19    20   ar
     4    20    16    1
     5    16     1    1
     6     1     2    1
     7     2     3   ar
     8     3     4   ar
     9     4     9    1
    10     9    10   ar
    11    10    11   ar
    12    11    12   ar
    13    12    13   ar
    14    13    14    1
    15    13    15   ar
    16     4     5   ar
    17     5     6   ar
    18     6     7   ar
    19     7     8    1
    20    20    21   ar
    21    21    22   ar
    22    22    23   ar
    23    23    24   ar
    24    24    25   ar
    25    25    26   ar
    26    26    18   ar
    27     7     2   ar
    28    25    21    1
    29    15     9   ar
    30    17    27    1
    31    17    28    1
    32    26    29    1
