@<TRIPOS>MOLECULE
*****
 32 36 0 0 0
SMALL
GASTEIGER

@<TRIPOS>ATOM
      1 O          63.3816   87.2284   12.9490 O.2     1  UNL1       -0.2698
      2 C          62.7778   86.4216   11.8379 C.2     1  UNL1        0.2507
      3 N          61.7662   87.0449   10.9225 N.am    1  UNL1       -0.2723
      4 C          61.1623   86.2381    9.8115 C.3     1  UNL1        0.1257
      5 C          60.1506   86.8615    8.8960 C.3     1  UNL1        0.1637
      6 O          59.7429   88.2917    9.0916 O.3     1  UNL1       -0.3502
      7 C          60.3467   89.0985   10.2026 C.3     1  UNL1        0.1622
      8 C          61.3583   88.4752   11.1181 C.3     1  UNL1        0.1096
      9 C          63.1856   84.9914   11.6424 C.ar    1  UNL1        0.0752
     10 C          63.3651   84.4454   10.2568 C.ar    1  UNL1        0.0062
     11 C          63.7728   83.0152   10.0613 C.ar    1  UNL1        0.0026
     12 C          64.0011   82.1310   11.2512 C.ar    1  UNL1        0.0313
     13 C          63.8216   82.6770   12.6367 C.ar    1  UNL1        0.1595
     14 F          64.0500   81.7927   13.8267 F       1  UNL1       -0.2025
     15 C          63.4139   84.1072   12.8323 C.ar    1  UNL1        0.1345
     16 N          63.2344   84.6531   14.2179 N.ar    1  UNL1       -0.1454
     17 N          64.3025   85.2809   15.0634 N.ar    1  UNL1       -0.1446
     18 C          63.6835   85.6830   16.3692 C.ar    1  UNL1        0.1446
     19 C          62.2328   85.3036   16.3308 C.ar    1  UNL1        0.1446
     20 N          61.9552   84.6671   15.0012 N.ar    1  UNL1       -0.1446
     21 C          61.9622   89.2820   12.2291 C.3     1  UNL1        0.0488
     22 C          63.0091   90.3121   11.9246 C.ar    1  UNL1       -0.0189
     23 C          63.1013   90.9039   10.5493 C.ar    1  UNL1       -0.0041
     24 C          64.1483   91.9341   10.2448 C.ar    1  UNL1        0.0013
     25 C          65.1030   92.3725   11.3155 C.ar    1  UNL1        0.0209
     26 C          65.0107   91.7807   12.6907 C.ar    1  UNL1        0.1026
     27 C          63.9638   90.7505   12.9953 C.ar    1  UNL1        0.0167
     28 N          65.9654   92.2190   13.7615 N.ar    1  UNL1       -0.1478
     29 N          67.4238   92.5160   13.5747 N.ar    1  UNL1       -0.1447
     30 C          67.9890   92.9179   14.9047 C.ar    1  UNL1        0.1446
     31 C          66.8799   92.8694   15.9135 C.ar    1  UNL1        0.1446
     32 N          65.6292   92.4375   15.2070 N.ar    1  UNL1       -0.1447
@<TRIPOS>BOND
     1     1     2    2
     2     2     9    1
     3     9    10   ar
     4    10    11   ar
     5    11    12   ar
     6    12    13   ar
     7    13    14    1
     8    13    15   ar
     9    15    16    1
    10    16    17   ar
    11    17    18   ar
    12    18    19   ar
    13    19    20   ar
    14     2     3   am
    15     3     4    1
    16     4     5    1
    17     5     6    1
    18     6     7    1
    19     7     8    1
    20     8    21    1
    21    21    22    1
    22    22    23   ar
    23    23    24   ar
    24    24    25   ar
    25    25    26   ar
    26    26    28    1
    27    28    29   ar
    28    29    30   ar
    29    30    31   ar
    30    31    32   ar
    31    26    27   ar
    32    15     9   ar
    33    20    16   ar
    34     8     3    1
    35    27    22   ar
    36    32    28   ar
@<TRIPOS>MOLECULE
*****
 32 36 0 0 0
SMALL
GASTEIGER

@<TRIPOS>ATOM
      1 O          63.6750   87.4830   13.7716 O.2     1  UNL1       -0.2698
      2 C          63.0766   87.0756   12.4579 C.2     1  UNL1        0.2507
      3 N          62.4488   88.1068   11.5677 N.am    1  UNL1       -0.2723
      4 C          61.8504   87.6994   10.2540 C.3     1  UNL1        0.1257
      5 C          61.2225   88.7306    9.3638 C.3     1  UNL1        0.1637
      6 O          61.1930   90.1692    9.7875 O.3     1  UNL1       -0.3502
      7 C          61.7914   90.5766   11.1012 C.3     1  UNL1        0.1622
      8 C          62.4192   89.5455   11.9914 C.3     1  UNL1        0.1096
      9 C          63.1062   85.6369   12.0342 C.ar    1  UNL1        0.0752
     10 C          63.1453   85.2849   10.5766 C.ar    1  UNL1        0.0062
     11 C          63.1749   83.8463   10.1530 C.ar    1  UNL1        0.0026
     12 C          63.1652   82.7597   11.1869 C.ar    1  UNL1        0.0313
     13 C          63.1260   83.1117   12.6445 C.ar    1  UNL1        0.1595
     14 F          63.1163   82.0249   13.6785 F       1  UNL1       -0.2025
     15 C          63.0965   84.5503   13.0682 C.ar    1  UNL1        0.1345
     16 N          63.0573   84.9022   14.5258 N.ar    1  UNL1       -0.1454
     17 N          61.8328   84.9389   15.3913 N.ar    1  UNL1       -0.1446
     18 C          62.2544   85.3387   16.7743 C.ar    1  UNL1        0.1446
     19 C          63.7395   85.5490   16.7634 C.ar    1  UNL1        0.1446
     20 N          64.2357   85.2793   15.3738 N.ar    1  UNL1       -0.1446
     21 C          63.0176   89.9529   13.3051 C.3     1  UNL1        0.0488
     22 C          64.3104   90.7129   13.3369 C.ar    1  UNL1       -0.0189
     23 C          65.2380   90.5663   14.5065 C.ar    1  UNL1       -0.0041
     24 C          66.5308   91.3264   14.5384 C.ar    1  UNL1        0.0013
     25 C          66.8959   92.2331   13.4006 C.ar    1  UNL1        0.0209
     26 C          65.9682   92.3797   12.2310 C.ar    1  UNL1        0.1026
     27 C          64.6755   91.6197   12.1992 C.ar    1  UNL1        0.0167
     28 N          66.3333   93.2865   11.0932 N.ar    1  UNL1       -0.1478
     29 N          65.6184   94.5470   10.7059 N.ar    1  UNL1       -0.1447
     30 C          66.3207   95.1315    9.5163 C.ar    1  UNL1        0.1446
     31 C          67.4697   94.2322    9.1683 C.ar    1  UNL1        0.1446
     32 N          67.4776   93.0918   10.1429 N.ar    1  UNL1       -0.1447
@<TRIPOS>BOND
     1     1     2    2
     2     2     9    1
     3     9    10   ar
     4    10    11   ar
     5    11    12   ar
     6    12    13   ar
     7    13    14    1
     8    13    15   ar
     9    15    16    1
    10    16    17   ar
    11    17    18   ar
    12    18    19   ar
    13    19    20   ar
    14     2     3   am
    15     3     4    1
    16     4     5    1
    17     5     6    1
    18     6     7    1
    19     7     8    1
    20     8    21    1
    21    21    22    1
    22    22    23   ar
    23    23    24   ar
    24    24    25   ar
    25    25    26   ar
    26    26    28    1
    27    28    29   ar
    28    29    30   ar
    29    30    31   ar
    30    31    32   ar
    31    26    27   ar
    32    15     9   ar
    33    20    16   ar
    34     8     3    1
    35    27    22   ar
    36    32    28   ar
@<TRIPOS>MOLECULE
*****
 32 36 0 0 0
SMALL
GASTEIGER

@<TRIPOS>ATOM
      1 O          62.6827   90.0299   11.4964 O.2     1  UNL1       -0.2698
      2 C          62.7080   88.5306   11.5355 C.2     1  UNL1        0.2507
      3 N          63.3413   87.8212   12.6954 N.am    1  UNL1       -0.2723
      4 C          63.3665   86.3219   12.7345 C.3     1  UNL1        0.1257
      5 C          64.0000   85.6124   13.8945 C.3     1  UNL1        0.1637
      6 O          64.6081   86.4022   15.0153 O.3     1  UNL1       -0.3502
      7 C          64.5829   87.9015   14.9762 C.3     1  UNL1        0.1622
      8 C          63.9495   88.6110   13.8163 C.3     1  UNL1        0.1096
      9 C          62.0998   87.7408   10.4146 C.ar    1  UNL1        0.0752
     10 C          62.9379   86.7639    9.6445 C.ar    1  UNL1        0.0062
     11 C          62.3298   85.9741    8.5237 C.ar    1  UNL1        0.0026
     12 C          60.8835   86.1613    8.1729 C.ar    1  UNL1        0.0313
     13 C          60.0453   87.1382    8.9429 C.ar    1  UNL1        0.1595
     14 F          58.5989   87.3253    8.5921 F       1  UNL1       -0.2025
     15 C          60.6534   87.9280   10.0638 C.ar    1  UNL1        0.1345
     16 N          59.8153   88.9049   10.8339 N.ar    1  UNL1       -0.1454
     17 N          59.0613   88.6155   12.0979 N.ar    1  UNL1       -0.1446
     18 C          58.3639   89.8745   12.5204 C.ar    1  UNL1        0.1446
     19 C          58.6869   90.9422   11.5175 C.ar    1  UNL1        0.1446
     20 N          59.5839   90.3429   10.4752 N.ar    1  UNL1       -0.1446
     21 C          63.9243   90.1103   13.7772 C.3     1  UNL1        0.0488
     22 C          65.2101   90.8809   13.7246 C.ar    1  UNL1       -0.0189
     23 C          66.1568   90.8405   14.8874 C.ar    1  UNL1       -0.0041
     24 C          67.4427   91.6111   14.8347 C.ar    1  UNL1        0.0013
     25 C          67.7818   92.4221   13.6193 C.ar    1  UNL1        0.0209
     26 C          66.8350   92.4625   12.4565 C.ar    1  UNL1        0.1026
     27 C          65.5492   91.6919   12.5091 C.ar    1  UNL1        0.0167
     28 N          67.1741   93.2735   11.2411 N.ar    1  UNL1       -0.1478
     29 N          67.9453   92.7931   10.0476 N.ar    1  UNL1       -0.1447
     30 C          68.0494   93.9300    9.0746 C.ar    1  UNL1        0.1446
     31 C          67.3425   95.1130    9.6667 C.ar    1  UNL1        0.1446
     32 N          66.8015   94.7074   11.0057 N.ar    1  UNL1       -0.1447
@<TRIPOS>BOND
     1     1     2    2
     2     2     9    1
     3     9    10   ar
     4    10    11   ar
     5    11    12   ar
     6    12    13   ar
     7    13    14    1
     8    13    15   ar
     9    15    16    1
    10    16    17   ar
    11    17    18   ar
    12    18    19   ar
    13    19    20   ar
    14     2     3   am
    15     3     4    1
    16     4     5    1
    17     5     6    1
    18     6     7    1
    19     7     8    1
    20     8    21    1
    21    21    22    1
    22    22    23   ar
    23    23    24   ar
    24    24    25   ar
    25    25    26   ar
    26    26    28    1
    27    28    29   ar
    28    29    30   ar
    29    30    31   ar
    30    31    32   ar
    31    26    27   ar
    32    15     9   ar
    33    20    16   ar
    34     8     3    1
    35    27    22   ar
    36    32    28   ar
@<TRIPOS>MOLECULE
*****
 32 36 0 0 0
SMALL
GASTEIGER

@<TRIPOS>ATOM
      1 O          63.8473   88.2926   12.3879 O.2     1  UNL1       -0.2698
      2 C          63.6754   87.3800   13.5659 C.2     1  UNL1        0.2507
      3 N          63.4869   87.9546   14.9386 N.am    1  UNL1       -0.2723
      4 C          63.3150   87.0420   16.1166 C.3     1  UNL1        0.1257
      5 C          63.1266   87.6167   17.4893 C.3     1  UNL1        0.1637
      6 O          63.1101   89.1039   17.6840 O.3     1  UNL1       -0.3502
      7 C          63.2820   90.0165   16.5060 C.3     1  UNL1        0.1622
      8 C          63.4704   89.4419   15.1333 C.3     1  UNL1        0.1096
      9 C          63.6919   85.8927   13.3712 C.ar    1  UNL1        0.0752
     10 C          64.4863   85.0235   14.3003 C.ar    1  UNL1        0.0062
     11 C          64.5029   83.5363   14.1056 C.ar    1  UNL1        0.0026
     12 C          63.7249   82.9184   12.9818 C.ar    1  UNL1        0.0313
     13 C          62.9304   83.7876   12.0527 C.ar    1  UNL1        0.1595
     14 F          62.1525   83.1696   10.9289 F       1  UNL1       -0.2025
     15 C          62.9139   85.2748   12.2474 C.ar    1  UNL1        0.1345
     16 N          62.1194   86.1441   11.3183 N.ar    1  UNL1       -0.1454
     17 N          62.4278   86.4030    9.8734 N.ar    1  UNL1       -0.1446
     18 C          61.3760   87.3260    9.3331 C.ar    1  UNL1        0.1446
     19 C          60.4176   87.6375   10.4441 C.ar    1  UNL1        0.1446
     20 N          60.8771   86.9070   11.6710 N.ar    1  UNL1       -0.1446
     21 C          63.6424   90.3545   13.9554 C.3     1  UNL1        0.0488
     22 C          64.9239   91.1128   13.7749 C.ar    1  UNL1       -0.0189
     23 C          66.0336   90.9582   14.7721 C.ar    1  UNL1       -0.0041
     24 C          67.3152   91.7166   14.5917 C.ar    1  UNL1        0.0013
     25 C          67.4870   92.6295   13.4139 C.ar    1  UNL1        0.0209
     26 C          66.3772   92.7840   12.4166 C.ar    1  UNL1        0.1026
     27 C          65.0957   92.0257   12.5971 C.ar    1  UNL1        0.0167
     28 N          66.5490   93.6969   11.2388 N.ar    1  UNL1       -0.1478
     29 N          65.7145   94.9045   10.9302 N.ar    1  UNL1       -0.1447
     30 C          66.2352   95.5164    9.6635 C.ar    1  UNL1        0.1446
     31 C          67.3915   94.6869    9.1892 C.ar    1  UNL1        0.1446
     32 N          67.5854   93.5623   10.1628 N.ar    1  UNL1       -0.1447
@<TRIPOS>BOND
     1     1     2    2
     2     2     9    1
     3     9    10   ar
     4    10    11   ar
     5    11    12   ar
     6    12    13   ar
     7    13    14    1
     8    13    15   ar
     9    15    16    1
    10    16    17   ar
    11    17    18   ar
    12    18    19   ar
    13    19    20   ar
    14     2     3   am
    15     3     4    1
    16     4     5    1
    17     5     6    1
    18     6     7    1
    19     7     8    1
    20     8    21    1
    21    21    22    1
    22    22    23   ar
    23    23    24   ar
    24    24    25   ar
    25    25    26   ar
    26    26    28    1
    27    28    29   ar
    28    29    30   ar
    29    30    31   ar
    30    31    32   ar
    31    26    27   ar
    32    15     9   ar
    33    20    16   ar
    34     8     3    1
    35    27    22   ar
    36    32    28   ar
