@<TRIPOS>MOLECULE
*****
 38 41 0 0 0
SMALL
GASTEIGER

@<TRIPOS>ATOM
      1 C          61.5120   87.8015   10.3990 C.3     1  UNL1        0.3254
      2 F          60.4918   87.8476   11.4977 F       1  UNL1       -0.1949
      3 F          62.7125   87.9866    9.5189 F       1  UNL1       -0.1949
      4 C          62.3824   88.7513   11.1674 C.ar    1  UNL1        0.1218
      5 C          62.7085   90.0993   10.5959 C.ar    1  UNL1        0.0202
      6 C          63.5789   91.0491   11.3642 C.ar    1  UNL1        0.0029
      7 C          64.1232   90.6509   12.7041 C.ar    1  UNL1        0.0192
      8 C          63.7971   89.3029   13.2755 C.ar    1  UNL1        0.0986
      9 N          62.9267   88.3531   12.5072 N.ar    1  UNL1       -0.2427
     10 C          64.9935   91.6007   13.4724 C.ar    1  UNL1        0.0017
     11 C          65.1332   91.4547   14.9587 C.ar    1  UNL1        0.0032
     12 C          66.0036   92.4045   15.7271 C.ar    1  UNL1        0.0369
     13 C          66.7343   93.5002   15.0092 C.ar    1  UNL1        0.1390
     14 C          66.5946   93.6461   13.5228 C.ar    1  UNL1        0.0369
     15 C          65.7242   92.6964   12.7544 C.ar    1  UNL1        0.0032
     16 O          67.6046   94.4500   15.7775 O.3     1  UNL1       -0.4666
     17 C          69.0055   94.0562   16.1413 C.3     1  UNL1        0.3081
     18 C          69.5207   92.6953   15.7772 C.3     1  UNL1        0.4380
     19 F          70.0358   91.3344   15.4131 F       1  UNL1       -0.1663
     20 F          70.1042   93.2543   14.5134 F       1  UNL1       -0.1663
     21 F          68.9373   92.1364   17.0409 F       1  UNL1       -0.1663
     22 O          59.7713   85.9019    8.8625 O.3     1  UNL1       -0.3755
     23 C          60.6416   86.8517    9.6307 C.3     1  UNL1        0.1932
     24 H          58.8427   86.1664    8.9562 H       1  UNL1        0.2110
     25 C          61.6826   85.7813    9.7747 C.ar    1  UNL1        0.0368
     26 C          61.9791   85.2003   11.1255 C.ar    1  UNL1        0.0028
     27 C          63.0201   84.1300   11.2694 C.ar    1  UNL1        0.0295
     28 C          63.7645   83.6406   10.0626 C.ar    1  UNL1        0.1424
     29 F          64.8054   82.5702   10.2066 F       1  UNL1       -0.2041
     30 C          63.4680   84.2216    8.7119 C.ar    1  UNL1        0.0590
     31 C          62.4270   85.2920    8.5679 C.ar    1  UNL1        0.1408
     32 F          62.1305   85.8729    7.2172 F       1  UNL1       -0.2043
     33 C          59.6006   87.9221    9.4868 C.3     1  UNL1        0.1679
     34 N          59.4723   88.6746    8.1956 N.ar    1  UNL1       -0.2078
     35 C          60.2058   89.9312    7.8309 C.ar    1  UNL1        0.2216
     36 N          59.7748   90.3360    6.4524 N.ar    1  UNL1       -0.1048
     37 N          58.7749   89.3296    5.9651 N.ar    1  UNL1       -0.0226
     38 N          58.5880   88.3028    7.0425 N.ar    1  UNL1       -0.0428
@<TRIPOS>BOND
     1    22    23    1
     2    23    33    1
     3    33    34    1
     4    34    35   ar
     5    35    36   ar
     6    36    37   ar
     7    37    38   ar
     8    23    25    1
     9    25    26   ar
    10    26    27   ar
    11    27    28   ar
    12    28    29    1
    13    28    30   ar
    14    30    31   ar
    15    31    32    1
    16    23     1    1
    17     1     2    1
    18     1     3    1
    19     1     4    1
    20     4     5   ar
    21     5     6   ar
    22     6     7   ar
    23     7    10    1
    24    10    11   ar
    25    11    12   ar
    26    12    13   ar
    27    13    16    1
    28    16    17    1
    29    17    18    1
    30    18    19    1
    31    18    20    1
    32    18    21    1
    33    13    14   ar
    34    14    15   ar
    35     7     8   ar
    36     8     9   ar
    37    38    34   ar
    38    31    25   ar
    39     9     4   ar
    40    15    10   ar
    41    22    24    1
@<TRIPOS>MOLECULE
*****
 38 41 0 0 0
SMALL
GASTEIGER

@<TRIPOS>ATOM
      1 C          61.5095   87.8693   10.2439 C.3     1  UNL1        0.3254
      2 F          60.4319   87.9813   11.2813 F       1  UNL1       -0.1949
      3 F          62.7640   87.9863    9.4300 F       1  UNL1       -0.1949
      4 C          62.3730   88.8023   11.0401 C.ar    1  UNL1        0.1218
      5 C          62.6651   90.1795   10.5225 C.ar    1  UNL1        0.0202
      6 C          63.5287   91.1125   11.3187 C.ar    1  UNL1        0.0029
      7 C          64.1001   90.6682   12.6325 C.ar    1  UNL1        0.0192
      8 C          63.8079   89.2909   13.1501 C.ar    1  UNL1        0.0986
      9 N          62.9445   88.3580   12.3539 N.ar    1  UNL1       -0.2427
     10 C          64.9636   91.6011   13.4287 C.ar    1  UNL1        0.0017
     11 C          65.0662   91.4420   14.9167 C.ar    1  UNL1        0.0032
     12 C          65.9297   92.3749   15.7130 C.ar    1  UNL1        0.0369
     13 C          66.6906   93.4670   15.0212 C.ar    1  UNL1        0.1390
     14 C          66.5879   93.6261   13.5332 C.ar    1  UNL1        0.0369
     15 C          65.7244   92.6932   12.7370 C.ar    1  UNL1        0.0032
     16 O          67.5540   94.3999   15.8174 O.3     1  UNL1       -0.4666
     17 C          68.9766   94.0318   16.1188 C.3     1  UNL1        0.3081
     18 C          69.4782   92.6542   15.8015 C.3     1  UNL1        0.4380
     19 F          69.9798   91.2766   15.4843 F       1  UNL1       -0.1663
     20 F          70.0338   93.1559   14.5016 F       1  UNL1       -0.1663
     21 F          68.9226   92.1526   17.1014 F       1  UNL1       -0.1663
     22 O          59.7825   86.0034    8.6516 O.3     1  UNL1       -0.3755
     23 C          60.6460   86.9363    9.4477 C.3     1  UNL1        0.1932
     24 H          58.8521   86.2583    8.7528 H       1  UNL1        0.2110
     25 C          61.6946   85.8697    9.5603 C.ar    1  UNL1        0.0368
     26 C          62.4627   85.4418    8.3449 C.ar    1  UNL1        0.0028
     27 C          63.5113   84.3752    8.4574 C.ar    1  UNL1        0.0295
     28 C          63.7919   83.7364    9.7853 C.ar    1  UNL1        0.1424
     29 F          64.8405   82.6698    9.8978 F       1  UNL1       -0.2041
     30 C          63.0239   84.1643   11.0006 C.ar    1  UNL1        0.0590
     31 C          61.9752   85.2309   10.8881 C.ar    1  UNL1        0.1408
     32 F          61.2073   85.6588   12.1035 F       1  UNL1       -0.2043
     33 C          59.5973   88.0029    9.3352 C.3     1  UNL1        0.1679
     34 N          59.4486   88.7768    8.0589 N.ar    1  UNL1       -0.2078
     35 C          60.2285   89.9984    7.6725 C.ar    1  UNL1        0.2216
     36 N          59.7558   90.4416    6.3197 N.ar    1  UNL1       -0.1048
     37 N          58.6836   89.4937    5.8700 N.ar    1  UNL1       -0.0226
     38 N          58.4938   88.4649    6.9448 N.ar    1  UNL1       -0.0428
@<TRIPOS>BOND
     1    22    23    1
     2    23    33    1
     3    33    34    1
     4    34    35   ar
     5    35    36   ar
     6    36    37   ar
     7    37    38   ar
     8    23    25    1
     9    25    26   ar
    10    26    27   ar
    11    27    28   ar
    12    28    29    1
    13    28    30   ar
    14    30    31   ar
    15    31    32    1
    16    23     1    1
    17     1     2    1
    18     1     3    1
    19     1     4    1
    20     4     5   ar
    21     5     6   ar
    22     6     7   ar
    23     7    10    1
    24    10    11   ar
    25    11    12   ar
    26    12    13   ar
    27    13    16    1
    28    16    17    1
    29    17    18    1
    30    18    19    1
    31    18    20    1
    32    18    21    1
    33    13    14   ar
    34    14    15   ar
    35     7     8   ar
    36     8     9   ar
    37    38    34   ar
    38    31    25   ar
    39     9     4   ar
    40    15    10   ar
    41    22    24    1
@<TRIPOS>MOLECULE
*****
 38 41 0 0 0
SMALL
GASTEIGER

@<TRIPOS>ATOM
      1 C          61.8421   87.7795   10.4150 C.3     1  UNL1        0.3254
      2 F          62.2073   88.5450    9.1777 F       1  UNL1       -0.1949
      3 F          61.6909   87.2622   11.8148 F       1  UNL1       -0.1949
      4 C          62.6811   88.7109   11.2388 C.ar    1  UNL1        0.1218
      5 C          63.0087   90.0805   10.7224 C.ar    1  UNL1        0.0202
      6 C          63.8477   91.0119   11.5462 C.ar    1  UNL1        0.0029
      7 C          64.3591   90.5736   12.8865 C.ar    1  UNL1        0.0192
      8 C          64.0315   89.2039   13.4029 C.ar    1  UNL1        0.0986
      9 N          63.1925   88.2726   12.5791 N.ar    1  UNL1       -0.2427
     10 C          65.1980   91.5050   13.7103 C.ar    1  UNL1        0.0017
     11 C          65.1531   91.4288   15.2077 C.ar    1  UNL1        0.0032
     12 C          65.9920   92.3602   16.0316 C.ar    1  UNL1        0.0369
     13 C          66.8760   93.3677   15.3581 C.ar    1  UNL1        0.1390
     14 C          66.9209   93.4438   13.8606 C.ar    1  UNL1        0.0369
     15 C          66.0819   92.5125   13.0368 C.ar    1  UNL1        0.0032
     16 O          67.7149   94.2990   16.1819 O.3     1  UNL1       -0.4666
     17 C          69.1845   94.0436   16.3394 C.3     1  UNL1        0.3081
     18 C          69.9077   93.1858   15.3438 C.3     1  UNL1        0.4380
     19 F          70.6308   92.3280   14.3482 F       1  UNL1       -0.1663
     20 F          70.6844   94.3815   14.8777 F       1  UNL1       -0.1663
     21 F          69.1311   91.9901   15.8099 F       1  UNL1       -0.1663
     22 O          60.1643   85.9168    8.7673 O.3     1  UNL1       -0.3755
     23 C          61.0032   86.8481    9.5912 C.3     1  UNL1        0.1932
     24 H          59.2617   86.2662    8.7027 H       1  UNL1        0.2110
     25 C          61.9049   85.7082    9.9616 C.ar    1  UNL1        0.0368
     26 C          61.8215   85.1002   11.3304 C.ar    1  UNL1        0.0028
     27 C          62.7232   83.9602   11.7009 C.ar    1  UNL1        0.0295
     28 C          63.7084   83.4281   10.7027 C.ar    1  UNL1        0.1424
     29 F          64.6101   82.2882   11.0732 F       1  UNL1       -0.2041
     30 C          63.7918   84.0361    9.3340 C.ar    1  UNL1        0.0590
     31 C          62.8900   85.1761    8.9634 C.ar    1  UNL1        0.1408
     32 F          62.9735   85.7841    7.5947 F       1  UNL1       -0.2043
     33 C          60.1014   87.9881    9.2206 C.3     1  UNL1        0.1679
     34 N          59.6484   88.9582   10.2712 N.ar    1  UNL1       -0.2078
     35 C          59.0981   88.6030   11.6207 C.ar    1  UNL1        0.2216
     36 N          58.7758   89.8790   12.3403 N.ar    1  UNL1       -0.1048
     37 N          59.1270   91.0228   11.4356 N.ar    1  UNL1       -0.0226
     38 N          59.6663   90.4537   10.1569 N.ar    1  UNL1       -0.0428
@<TRIPOS>BOND
     1    22    23    1
     2    23    33    1
     3    33    34    1
     4    34    35   ar
     5    35    36   ar
     6    36    37   ar
     7    37    38   ar
     8    23    25    1
     9    25    26   ar
    10    26    27   ar
    11    27    28   ar
    12    28    29    1
    13    28    30   ar
    14    30    31   ar
    15    31    32    1
    16    23     1    1
    17     1     2    1
    18     1     3    1
    19     1     4    1
    20     4     5   ar
    21     5     6   ar
    22     6     7   ar
    23     7    10    1
    24    10    11   ar
    25    11    12   ar
    26    12    13   ar
    27    13    16    1
    28    16    17    1
    29    17    18    1
    30    18    19    1
    31    18    20    1
    32    18    21    1
    33    13    14   ar
    34    14    15   ar
    35     7     8   ar
    36     8     9   ar
    37    38    34   ar
    38    31    25   ar
    39     9     4   ar
    40    15    10   ar
    41    22    24    1
@<TRIPOS>MOLECULE
*****
 38 41 0 0 0
SMALL
GASTEIGER

@<TRIPOS>ATOM
      1 C          65.5607   91.9662   12.9432 C.3     1  UNL1        0.3254
      2 F          65.8506   91.6299   11.5104 F       1  UNL1       -0.1949
      3 F          65.1443   91.9595   14.3842 F       1  UNL1       -0.1949
      4 C          65.0027   90.5898   13.1534 C.ar    1  UNL1        0.1218
      5 C          65.3998   89.7961   14.3627 C.ar    1  UNL1        0.0202
      6 C          64.8419   88.4196   14.5729 C.ar    1  UNL1        0.0029
      7 C          63.8868   87.8369   13.5738 C.ar    1  UNL1        0.0192
      8 C          63.4897   88.6307   12.3644 C.ar    1  UNL1        0.0986
      9 N          64.0476   90.0070   12.1543 N.ar    1  UNL1       -0.2427
     10 C          63.3288   86.4605   13.7839 C.ar    1  UNL1        0.0017
     11 C          63.1982   85.9082   15.1723 C.ar    1  UNL1        0.0032
     12 C          62.6402   84.5317   15.3825 C.ar    1  UNL1        0.0369
     13 C          62.2129   83.7077   14.2042 C.ar    1  UNL1        0.1390
     14 C          62.3435   84.2601   12.8157 C.ar    1  UNL1        0.0369
     15 C          62.9015   85.6365   12.6056 C.ar    1  UNL1        0.0032
     16 O          61.6549   82.3313   14.4144 O.3     1  UNL1       -0.4666
     17 C          62.5455   81.1322   14.2779 C.3     1  UNL1        0.3081
     18 C          62.5950   80.3783   12.9820 C.3     1  UNL1        0.4380
     19 F          62.6445   79.6244   11.6862 F       1  UNL1       -0.1663
     20 F          63.7580   81.2158   12.5391 F       1  UNL1       -0.1663
     21 F          61.4321   79.5408   13.4248 F       1  UNL1       -0.1663
     22 O          66.6766   94.7190   12.5228 O.3     1  UNL1       -0.3755
     23 C          66.1186   93.3426   12.7330 C.3     1  UNL1        0.1932
     24 H          66.5263   94.9919   11.6042 H       1  UNL1        0.2110
     25 C          67.0906   93.1197   13.8535 C.ar    1  UNL1        0.0368
     26 C          66.8599   93.7679   15.1865 C.ar    1  UNL1        0.0028
     27 C          67.8319   93.5451   16.3070 C.ar    1  UNL1        0.0295
     28 C          69.0345   92.6741   16.0947 C.ar    1  UNL1        0.1424
     29 F          70.0064   92.4512   17.2152 F       1  UNL1       -0.2041
     30 C          69.2651   92.0259   14.7618 C.ar    1  UNL1        0.0590
     31 C          68.2932   92.2487   13.6412 C.ar    1  UNL1        0.1408
     32 F          68.5238   91.6006   12.3083 F       1  UNL1       -0.2043
     33 C          65.1467   93.5655   11.6124 C.3     1  UNL1        0.1679
     34 N          65.5022   94.4866   10.4833 N.ar    1  UNL1       -0.2078
     35 C          66.4486   94.1806    9.3604 C.ar    1  UNL1        0.2216
     36 N          66.5052   95.3804    8.4618 N.ar    1  UNL1       -0.1048
     37 N          65.5937   96.4279    9.0294 N.ar    1  UNL1       -0.0226
     38 N          64.9739   95.8755   10.2787 N.ar    1  UNL1       -0.0428
@<TRIPOS>BOND
     1    22    23    1
     2    23    33    1
     3    33    34    1
     4    34    35   ar
     5    35    36   ar
     6    36    37   ar
     7    37    38   ar
     8    23    25    1
     9    25    26   ar
    10    26    27   ar
    11    27    28   ar
    12    28    29    1
    13    28    30   ar
    14    30    31   ar
    15    31    32    1
    16    23     1    1
    17     1     2    1
    18     1     3    1
    19     1     4    1
    20     4     5   ar
    21     5     6   ar
    22     6     7   ar
    23     7    10    1
    24    10    11   ar
    25    11    12   ar
    26    12    13   ar
    27    13    16    1
    28    16    17    1
    29    17    18    1
    30    18    19    1
    31    18    20    1
    32    18    21    1
    33    13    14   ar
    34    14    15   ar
    35     7     8   ar
    36     8     9   ar
    37    38    34   ar
    38    31    25   ar
    39     9     4   ar
    40    15    10   ar
    41    22    24    1
@<TRIPOS>MOLECULE
*****
 38 41 0 0 0
SMALL
GASTEIGER

@<TRIPOS>ATOM
      1 C          63.4248   88.6199   13.1253 C.3     1  UNL1        0.3254
      2 F          63.6284   88.4567   14.6025 F       1  UNL1       -0.1949
      3 F          63.2025   88.4179   11.6557 F       1  UNL1       -0.1949
      4 C          63.3220   87.1309   12.9749 C.ar    1  UNL1        0.1218
      5 C          62.6351   86.5437   11.7778 C.ar    1  UNL1        0.0202
      6 C          62.5323   85.0547   11.6274 C.ar    1  UNL1        0.0029
      7 C          63.1164   84.1531   12.6743 C.ar    1  UNL1        0.0192
      8 C          63.8034   84.7405   13.8715 C.ar    1  UNL1        0.0986
      9 N          63.9062   86.2293   14.0218 N.ar    1  UNL1       -0.2427
     10 C          63.0136   82.6642   12.5240 C.ar    1  UNL1        0.0017
     11 C          63.2780   82.0248   11.1931 C.ar    1  UNL1        0.0032
     12 C          63.1753   80.5358   11.0428 C.ar    1  UNL1        0.0369
     13 C          62.8081   79.6864   12.2233 C.ar    1  UNL1        0.1390
     14 C          62.5437   80.3259   13.5542 C.ar    1  UNL1        0.0369
     15 C          62.6465   81.8148   13.7045 C.ar    1  UNL1        0.0032
     16 O          62.7053   78.1975   12.0730 O.3     1  UNL1       -0.4666
     17 C          62.4478   77.5960   10.7233 C.3     1  UNL1        0.3081
     18 C          63.5681   77.4653    9.7343 C.3     1  UNL1        0.4380
     19 F          64.6884   77.3346    8.7455 F       1  UNL1       -0.1663
     20 F          63.1158   78.7242    9.0555 F       1  UNL1       -0.1663
     21 F          64.0204   76.2065   10.4131 F       1  UNL1       -0.1663
     22 O          63.6305   91.5976   13.4261 O.3     1  UNL1       -0.3755
     23 C          63.5276   90.1088   13.2757 C.3     1  UNL1        0.1932
     24 H          63.9272   91.8121   14.3243 H       1  UNL1        0.2110
     25 C          62.5031   90.2887   12.1950 C.ar    1  UNL1        0.0368
     26 C          61.0667   89.9465   12.4587 C.ar    1  UNL1        0.0028
     27 C          60.0422   90.1264   11.3780 C.ar    1  UNL1        0.0295
     28 C          60.4541   90.6485   10.0335 C.ar    1  UNL1        0.1424
     29 F          59.4296   90.8284    8.9528 F       1  UNL1       -0.2041
     30 C          61.8905   90.9907    9.7697 C.ar    1  UNL1        0.0590
     31 C          62.9150   90.8108   10.8504 C.ar    1  UNL1        0.1408
     32 F          64.3514   91.1529   10.5866 F       1  UNL1       -0.2043
     33 C          64.5522   89.9289   14.3565 C.3     1  UNL1        0.1679
     34 N          64.8324   91.0458   15.3177 N.ar    1  UNL1       -0.2078
     35 C          66.1077   91.8300   15.4106 C.ar    1  UNL1        0.2216
     36 N          65.9499   92.8435   16.5052 N.ar    1  UNL1       -0.1048
     37 N          64.5771   92.6856   17.0887 N.ar    1  UNL1       -0.0226
     38 N          63.8864   91.5746   16.3548 N.ar    1  UNL1       -0.0428
@<TRIPOS>BOND
     1    22    23    1
     2    23    33    1
     3    33    34    1
     4    34    35   ar
     5    35    36   ar
     6    36    37   ar
     7    37    38   ar
     8    23    25    1
     9    25    26   ar
    10    26    27   ar
    11    27    28   ar
    12    28    29    1
    13    28    30   ar
    14    30    31   ar
    15    31    32    1
    16    23     1    1
    17     1     2    1
    18     1     3    1
    19     1     4    1
    20     4     5   ar
    21     5     6   ar
    22     6     7   ar
    23     7    10    1
    24    10    11   ar
    25    11    12   ar
    26    12    13   ar
    27    13    16    1
    28    16    17    1
    29    17    18    1
    30    18    19    1
    31    18    20    1
    32    18    21    1
    33    13    14   ar
    34    14    15   ar
    35     7     8   ar
    36     8     9   ar
    37    38    34   ar
    38    31    25   ar
    39     9     4   ar
    40    15    10   ar
    41    22    24    1
