@<TRIPOS>MOLECULE
*****
 27 30 0 0 0
SMALL
GASTEIGER

@<TRIPOS>ATOM
      1 C          63.8560   90.7025   13.7783 C.2     1  UNL1        0.2440
      2 O          63.3744   91.6642   12.7327 O.2     1  UNL1       -0.2731
      3 N          63.7329   89.2248   13.5518 N.am    1  UNL1       -0.2747
      4 C          63.1282   88.7089   12.2797 C.3     1  UNL1        0.1149
      5 C          63.0051   87.2311   12.0532 C.3     1  UNL1        0.1121
      6 N          63.4867   86.2695   13.0988 N.pl3   1  UNL1       -0.3071
      7 C          64.0913   86.7854   14.3708 C.3     1  UNL1        0.1121
      8 C          64.2144   88.2631   14.5973 C.3     1  UNL1        0.1149
      9 C          63.3636   84.7917   12.8723 C.2     1  UNL1        0.0295
     10 C          64.0796   84.1469   11.7228 C.2     1  UNL1        0.0120
     11 C          63.9565   82.6691   11.4964 C.2     1  UNL1        0.0216
     12 C          63.1173   81.8363   12.4195 C.2     1  UNL1        0.1008
     13 N          62.8103   80.3684   12.4468 N.2     1  UNL1       -0.1482
     14 N          61.9044   80.1060   13.6132 N.2     1  UNL1       -0.1467
     15 C          61.6516   81.4118   14.3068 C.2     1  UNL1        0.1198
     16 C          62.4013   82.4812   13.5690 C.2     1  UNL1        0.0238
     17 C          62.5244   83.9589   13.7954 C.3     1  UNL1        0.0705
     18 N          63.6535   91.2276   16.3146 N.3     1  UNL1       -0.3116
     19 C          64.4606   91.2184   15.0504 C.3     1  UNL1        0.1514
     20 H          62.7242   90.8512   16.1274 H       1  UNL1        0.1195
     21 H          63.5700   92.1846   16.6577 H       1  UNL1        0.1195
     22 C          65.8725   91.7251   15.0581 C.ar    1  UNL1        0.0005
     23 C          66.7783   91.4389   13.8972 C.ar    1  UNL1       -0.0025
     24 C          68.1901   91.9456   13.9049 C.ar    1  UNL1       -0.0003
     25 C          68.6961   92.7384   15.0734 C.ar    1  UNL1       -0.0000
     26 C          67.7903   93.0246   16.2343 C.ar    1  UNL1       -0.0003
     27 C          66.3784   92.5179   16.2265 C.ar    1  UNL1       -0.0025
@<TRIPOS>BOND
     1    19    18    1
     2    19     1    1
     3     1     2    2
     4     1     3   am
     5     3     4    1
     6     4     5    1
     7     5     6    1
     8     6     9    1
     9     9    10    2
    10    10    11    1
    11    11    12    2
    12    12    13    1
    13    13    14    2
    14    14    15    1
    15    15    16    2
    16    16    17    1
    17     6     7    1
    18     7     8    1
    19    19    22    1
    20    22    23   ar
    21    23    24   ar
    22    24    25   ar
    23    25    26   ar
    24    26    27   ar
    25     8     3    1
    26    27    22   ar
    27    17     9    1
    28    16    12    1
    29    18    20    1
    30    18    21    1
@<TRIPOS>MOLECULE
*****
 27 30 0 0 0
SMALL
GASTEIGER

@<TRIPOS>ATOM
      1 C          65.5103   91.9918   13.5146 C.2     1  UNL1        0.2440
      2 O          65.8303   91.5031   14.8962 O.2     1  UNL1       -0.2731
      3 N          64.5664   91.2160   12.6445 N.am    1  UNL1       -0.2747
      4 C          63.9424   89.9515   13.1560 C.3     1  UNL1        0.1149
      5 C          62.9984   89.1757   12.2857 C.3     1  UNL1        0.1121
      6 N          62.6785   89.6645   10.9042 N.pl3   1  UNL1       -0.3071
      7 C          63.3025   90.9290   10.3928 C.3     1  UNL1        0.1121
      8 C          64.2465   91.7048   11.2629 C.3     1  UNL1        0.1149
      9 C          61.7346   88.8887   10.0340 C.2     1  UNL1        0.0295
     10 C          60.3450   89.3995    9.7931 C.2     1  UNL1        0.0120
     11 C          59.4011   88.6237    8.9229 C.2     1  UNL1        0.0216
     12 C          59.8468   87.3371    8.2936 C.2     1  UNL1        0.1008
     13 N          59.1438   86.3626    7.3958 N.2     1  UNL1       -0.1482
     14 N          60.0990   85.2494    7.0819 N.2     1  UNL1       -0.1467
     15 C          61.3923   85.5360    7.7857 C.2     1  UNL1        0.1198
     16 C          61.2364   86.8263    8.5346 C.2     1  UNL1        0.0238
     17 C          62.1803   87.6021    9.4048 C.3     1  UNL1        0.0705
     18 N          66.0913   94.5037   13.8350 N.3     1  UNL1       -0.3116
     19 C          66.1343   93.2563   13.0032 C.3     1  UNL1        0.1514
     20 H          65.6036   94.3120   14.7102 H       1  UNL1        0.1195
     21 H          65.5981   95.2361   13.3244 H       1  UNL1        0.1195
     22 C          66.8014   93.2733   11.6597 C.ar    1  UNL1        0.0005
     23 C          67.7042   92.1454   11.2563 C.ar    1  UNL1       -0.0025
     24 C          68.3712   92.1624    9.9129 C.ar    1  UNL1       -0.0003
     25 C          68.1355   93.3073    8.9729 C.ar    1  UNL1       -0.0000
     26 C          67.2328   94.4352    9.3763 C.ar    1  UNL1       -0.0003
     27 C          66.5657   94.4182   10.7198 C.ar    1  UNL1       -0.0025
@<TRIPOS>BOND
     1    19    18    1
     2    19     1    1
     3     1     2    2
     4     1     3   am
     5     3     4    1
     6     4     5    1
     7     5     6    1
     8     6     9    1
     9     9    10    2
    10    10    11    1
    11    11    12    2
    12    12    13    1
    13    13    14    2
    14    14    15    1
    15    15    16    2
    16    16    17    1
    17     6     7    1
    18     7     8    1
    19    19    22    1
    20    22    23   ar
    21    23    24   ar
    22    24    25   ar
    23    25    26   ar
    24    26    27   ar
    25     8     3    1
    26    27    22   ar
    27    17     9    1
    28    16    12    1
    29    18    20    1
    30    18    21    1
@<TRIPOS>MOLECULE
*****
 27 30 0 0 0
SMALL
GASTEIGER

@<TRIPOS>ATOM
      1 C          61.5179   88.9331   10.1449 C.2     1  UNL1        0.2440
      2 O          60.9806   89.4628    8.8485 O.2     1  UNL1       -0.2731
      3 N          62.5317   89.7251   10.9162 N.am    1  UNL1       -0.2747
      4 C          63.0082   91.0469   10.3910 C.3     1  UNL1        0.1149
      5 C          64.0221   91.8389   11.1623 C.3     1  UNL1        0.1121
      6 N          64.5594   91.3092   12.4586 N.pl3   1  UNL1       -0.3071
      7 C          64.0828   89.9875   12.9838 C.3     1  UNL1        0.1121
      8 C          63.0690   89.1954   12.2126 C.3     1  UNL1        0.1149
      9 C          65.5733   92.1012   13.2299 C.2     1  UNL1        0.0295
     10 C          65.7992   93.5482   12.9058 C.2     1  UNL1        0.0120
     11 C          66.8131   94.3402   13.6771 C.2     1  UNL1        0.0216
     12 C          67.6010   93.6851   14.7725 C.2     1  UNL1        0.1008
     13 N          68.6601   94.2074   15.6974 N.2     1  UNL1       -0.1482
     14 N          69.0888   93.0832   16.5931 N.2     1  UNL1       -0.1467
     15 C          68.2945   91.8661   16.2219 C.2     1  UNL1        0.1198
     16 C          67.3750   92.2381   15.0967 C.2     1  UNL1        0.0238
     17 C          66.3612   91.4461   14.3254 C.3     1  UNL1        0.0705
     18 N          59.7682   87.5328   11.4592 N.3     1  UNL1       -0.3116
     19 C          61.0413   87.6114   10.6702 C.3     1  UNL1        0.1514
     20 H          59.3610   88.4644   11.5414 H       1  UNL1        0.1195
     21 H          59.9670   87.1654   12.3897 H       1  UNL1        0.1195
     22 C          61.8381   86.3681   10.4062 C.ar    1  UNL1        0.0005
     23 C          62.1163   85.4047   11.5218 C.ar    1  UNL1       -0.0025
     24 C          62.9130   84.1615   11.2579 C.ar    1  UNL1       -0.0003
     25 C          63.4316   83.8817    9.8785 C.ar    1  UNL1       -0.0000
     26 C          63.1534   84.8451    8.7629 C.ar    1  UNL1       -0.0003
     27 C          62.3566   86.0883    9.0269 C.ar    1  UNL1       -0.0025
@<TRIPOS>BOND
     1    19    18    1
     2    19     1    1
     3     1     2    2
     4     1     3   am
     5     3     4    1
     6     4     5    1
     7     5     6    1
     8     6     9    1
     9     9    10    2
    10    10    11    1
    11    11    12    2
    12    12    13    1
    13    13    14    2
    14    14    15    1
    15    15    16    2
    16    16    17    1
    17     6     7    1
    18     7     8    1
    19    19    22    1
    20    22    23   ar
    21    23    24   ar
    22    24    25   ar
    23    25    26   ar
    24    26    27   ar
    25     8     3    1
    26    27    22   ar
    27    17     9    1
    28    16    12    1
    29    18    20    1
    30    18    21    1
@<TRIPOS>MOLECULE
*****
 27 30 0 0 0
SMALL
GASTEIGER

@<TRIPOS>ATOM
      1 C          62.6624   90.2641   11.8302 C.2     1  UNL1        0.2440
      2 O          61.8039   90.9742   10.8258 O.2     1  UNL1       -0.2731
      3 N          62.7003   88.7649   11.8580 N.am    1  UNL1       -0.2747
      4 C          61.8796   87.9757   10.8815 C.3     1  UNL1        0.1149
      5 C          61.9175   86.4763   10.9094 C.3     1  UNL1        0.1121
      6 N          62.7760   85.7664   11.9137 N.pl3   1  UNL1       -0.3071
      7 C          63.5967   86.5556   12.8902 C.3     1  UNL1        0.1121
      8 C          63.5588   88.0548   12.8624 C.3     1  UNL1        0.1149
      9 C          62.8139   84.2670   11.9416 C.2     1  UNL1        0.0295
     10 C          63.4094   83.5103   10.7916 C.2     1  UNL1        0.0120
     11 C          63.4473   82.0110   10.8195 C.2     1  UNL1        0.0216
     12 C          62.8896   81.2685   11.9975 C.2     1  UNL1        0.1008
     13 N          62.7882   79.8037   12.3043 N.2     1  UNL1       -0.1482
     14 N          62.1300   79.6553   13.6439 N.2     1  UNL1       -0.1467
     15 C          61.8245   81.0282   14.1651 C.2     1  UNL1        0.1198
     16 C          62.2940   82.0253   13.1476 C.2     1  UNL1        0.0238
     17 C          62.2561   83.5246   13.1196 C.3     1  UNL1        0.0705
     18 N          63.1114   91.0674   14.2597 N.3     1  UNL1       -0.3116
     19 C          63.4831   91.0533   12.8067 C.3     1  UNL1        0.1514
     20 H          62.2820   90.4915   14.4041 H       1  UNL1        0.1195
     21 H          62.9154   92.0249   14.5513 H       1  UNL1        0.1195
     22 C          64.6756   91.8285   12.3299 C.ar    1  UNL1        0.0005
     23 C          65.7484   92.2259   13.3000 C.ar    1  UNL1       -0.0025
     24 C          66.9409   93.0011   12.8234 C.ar    1  UNL1       -0.0003
     25 C          67.0604   93.3789   11.3767 C.ar    1  UNL1       -0.0000
     26 C          65.9876   92.9815   10.4066 C.ar    1  UNL1       -0.0003
     27 C          64.7951   92.2063   10.8833 C.ar    1  UNL1       -0.0025
@<TRIPOS>BOND
     1    19    18    1
     2    19     1    1
     3     1     2    2
     4     1     3   am
     5     3     4    1
     6     4     5    1
     7     5     6    1
     8     6     9    1
     9     9    10    2
    10    10    11    1
    11    11    12    2
    12    12    13    1
    13    13    14    2
    14    14    15    1
    15    15    16    2
    16    16    17    1
    17     6     7    1
    18     7     8    1
    19    19    22    1
    20    22    23   ar
    21    23    24   ar
    22    24    25   ar
    23    25    26   ar
    24    26    27   ar
    25     8     3    1
    26    27    22   ar
    27    17     9    1
    28    16    12    1
    29    18    20    1
    30    18    21    1
@<TRIPOS>MOLECULE
*****
 27 30 0 0 0
SMALL
GASTEIGER

@<TRIPOS>ATOM
      1 C          61.4088   88.7146   10.0222 C.2     1  UNL1        0.2440
      2 O          60.7754   89.5279    8.9326 O.2     1  UNL1       -0.2731
      3 N          62.3174   89.3728   11.0178 N.am    1  UNL1       -0.2747
      4 C          62.5926   90.8443   10.9238 C.3     1  UNL1        0.1149
      5 C          63.5012   91.5025   11.9195 C.3     1  UNL1        0.1121
      6 N          64.1346   90.6892   13.0090 N.pl3   1  UNL1       -0.3071
      7 C          63.8595   89.2176   13.1030 C.3     1  UNL1        0.1121
      8 C          62.9509   88.5594   12.1074 C.3     1  UNL1        0.1149
      9 C          65.0433   91.3473   14.0047 C.2     1  UNL1        0.0295
     10 C          64.5376   91.6780   15.3775 C.2     1  UNL1        0.0120
     11 C          65.4462   92.3361   16.3732 C.2     1  UNL1        0.0216
     12 C          66.8606   92.6636   15.9958 C.2     1  UNL1        0.1008
     13 N          67.9798   93.3070   16.7596 N.2     1  UNL1       -0.1482
     14 N          69.1772   93.3740   15.8587 N.2     1  UNL1       -0.1467
     15 C          68.7980   92.7720   14.5381 C.2     1  UNL1        0.1198
     16 C          67.3662   92.3329   14.6229 C.2     1  UNL1        0.0238
     17 C          66.4576   91.6748   13.6273 C.3     1  UNL1        0.0705
     18 N          60.6230   86.6559   11.3985 N.3     1  UNL1       -0.3116
     19 C          61.1337   87.2430   10.1162 C.3     1  UNL1        0.1514
     20 H          60.5218   87.3949   12.0943 H       1  UNL1        0.1195
     21 H          61.2829   85.9565   11.7388 H       1  UNL1        0.1195
     22 C          61.3694   86.3586    8.9278 C.ar    1  UNL1        0.0005
     23 C          60.2547   86.0888    7.9610 C.ar    1  UNL1       -0.0025
     24 C          60.4903   85.2044    6.7726 C.ar    1  UNL1       -0.0003
     25 C          61.8405   84.5898    6.5510 C.ar    1  UNL1       -0.0000
     26 C          62.9552   84.8596    7.5177 C.ar    1  UNL1       -0.0003
     27 C          62.7195   85.7440    8.7062 C.ar    1  UNL1       -0.0025
@<TRIPOS>BOND
     1    19    18    1
     2    19     1    1
     3     1     2    2
     4     1     3   am
     5     3     4    1
     6     4     5    1
     7     5     6    1
     8     6     9    1
     9     9    10    2
    10    10    11    1
    11    11    12    2
    12    12    13    1
    13    13    14    2
    14    14    15    1
    15    15    16    2
    16    16    17    1
    17     6     7    1
    18     7     8    1
    19    19    22    1
    20    22    23   ar
    21    23    24   ar
    22    24    25   ar
    23    25    26   ar
    24    26    27   ar
    25     8     3    1
    26    27    22   ar
    27    17     9    1
    28    16    12    1
    29    18    20    1
    30    18    21    1
@<TRIPOS>MOLECULE
*****
 27 30 0 0 0
SMALL
GASTEIGER

@<TRIPOS>ATOM
      1 C          60.6453   88.6758   10.9465 C.2     1  UNL1        0.2440
      2 O          59.6400   88.0365   11.8579 O.2     1  UNL1       -0.2731
      3 N          61.7828   89.4666   11.5217 N.am    1  UNL1       -0.2747
      4 C          61.9149   89.6180   13.0081 C.3     1  UNL1        0.1149
      5 C          63.0525   90.4088   13.5832 C.3     1  UNL1        0.1121
      6 N          64.0578   91.0482   12.6719 N.pl3   1  UNL1       -0.3071
      7 C          63.9256   90.8967   11.1855 C.3     1  UNL1        0.1121
      8 C          62.7882   90.1060   10.6103 C.3     1  UNL1        0.1149
      9 C          65.1953   91.8390   13.2470 C.2     1  UNL1        0.0295
     10 C          65.5674   93.1625   12.6474 C.2     1  UNL1        0.0120
     11 C          66.7049   93.9533   13.2225 C.2     1  UNL1        0.0216
     12 C          67.4704   93.4205   14.3973 C.2     1  UNL1        0.1008
     13 N          68.6302   93.9711   15.1728 N.2     1  UNL1       -0.1482
     14 N          68.9750   92.9878   16.2518 N.2     1  UNL1       -0.1467
     15 C          68.0282   91.8294   16.1431 C.2     1  UNL1        0.1198
     16 C          67.0983   92.0968   14.9969 C.2     1  UNL1        0.0238
     17 C          65.9608   91.3061   14.4218 C.3     1  UNL1        0.0705
     18 N          59.8587   89.6049    8.6514 N.3     1  UNL1       -0.3116
     19 C          60.5132   88.5244    9.4601 C.3     1  UNL1        0.1514
     20 H          59.5659   90.3619    9.2691 H       1  UNL1        0.1195
     21 H          59.0438   89.2236    8.1709 H       1  UNL1        0.1195
     22 C          61.0356   87.2923    8.7824 C.ar    1  UNL1        0.0005
     23 C          60.1856   86.5709    7.7789 C.ar    1  UNL1       -0.0025
     24 C          60.7080   85.3389    7.1012 C.ar    1  UNL1       -0.0003
     25 C          62.0803   84.8283    7.4269 C.ar    1  UNL1       -0.0000
     26 C          62.9303   85.5498    8.4304 C.ar    1  UNL1       -0.0003
     27 C          62.4079   86.7819    9.1081 C.ar    1  UNL1       -0.0025
@<TRIPOS>BOND
     1    19    18    1
     2    19     1    1
     3     1     2    2
     4     1     3   am
     5     3     4    1
     6     4     5    1
     7     5     6    1
     8     6     9    1
     9     9    10    2
    10    10    11    1
    11    11    12    2
    12    12    13    1
    13    13    14    2
    14    14    15    1
    15    15    16    2
    16    16    17    1
    17     6     7    1
    18     7     8    1
    19    19    22    1
    20    22    23   ar
    21    23    24   ar
    22    24    25   ar
    23    25    26   ar
    24    26    27   ar
    25     8     3    1
    26    27    22   ar
    27    17     9    1
    28    16    12    1
    29    18    20    1
    30    18    21    1
@<TRIPOS>MOLECULE
*****
 27 30 0 0 0
SMALL
GASTEIGER

@<TRIPOS>ATOM
      1 C          60.6880   88.5370    8.9452 C.2     1  UNL1        0.2440
      2 O          60.1623   89.4121    7.8462 O.2     1  UNL1       -0.2731
      3 N          61.5237   89.1294   10.0409 N.am    1  UNL1       -0.2747
      4 C          61.8338   90.5970   10.0376 C.3     1  UNL1        0.1149
      5 C          62.6696   91.1894   11.1334 C.3     1  UNL1        0.1121
      6 N          63.1952   90.3143   12.2323 N.pl3   1  UNL1       -0.3071
      7 C          62.8851   88.8467   12.2356 C.3     1  UNL1        0.1121
      8 C          62.0494   88.2543   11.1399 C.3     1  UNL1        0.1149
      9 C          64.0310   90.9067   13.3281 C.2     1  UNL1        0.0295
     10 C          63.6793   90.6477   14.7630 C.2     1  UNL1        0.0120
     11 C          64.5151   91.2401   15.8588 C.2     1  UNL1        0.0216
     12 C          65.7025   92.0915   15.5195 C.2     1  UNL1        0.1008
     13 N          66.7047   92.8042   16.3782 N.2     1  UNL1       -0.1482
     14 N          67.6758   93.5038   15.4740 N.2     1  UNL1       -0.1467
     15 C          67.2737   93.2234   14.0563 C.2     1  UNL1        0.1198
     16 C          66.0541   92.3505   14.0844 C.2     1  UNL1        0.0238
     17 C          65.2183   91.7581   12.9887 C.3     1  UNL1        0.0705
     18 N          59.0064   86.5918    8.5738 N.3     1  UNL1       -0.3116
     19 C          60.3780   87.0694    8.9485 C.3     1  UNL1        0.1514
     20 H          58.4173   87.3932    8.3476 H       1  UNL1        0.1195
     21 H          58.5988   86.0803    9.3565 H       1  UNL1        0.1195
     22 C          61.4397   86.0794    9.3266 C.ar    1  UNL1        0.0005
     23 C          61.5013   85.5438   10.7263 C.ar    1  UNL1       -0.0025
     24 C          62.5629   84.5539   11.1045 C.ar    1  UNL1       -0.0003
     25 C          63.5629   84.0996   10.0829 C.ar    1  UNL1       -0.0000
     26 C          63.5013   84.6352    8.6832 C.ar    1  UNL1       -0.0003
     27 C          62.4396   85.6252    8.3051 C.ar    1  UNL1       -0.0025
@<TRIPOS>BOND
     1    19    18    1
     2    19     1    1
     3     1     2    2
     4     1     3   am
     5     3     4    1
     6     4     5    1
     7     5     6    1
     8     6     9    1
     9     9    10    2
    10    10    11    1
    11    11    12    2
    12    12    13    1
    13    13    14    2
    14    14    15    1
    15    15    16    2
    16    16    17    1
    17     6     7    1
    18     7     8    1
    19    19    22    1
    20    22    23   ar
    21    23    24   ar
    22    24    25   ar
    23    25    26   ar
    24    26    27   ar
    25     8     3    1
    26    27    22   ar
    27    17     9    1
    28    16    12    1
    29    18    20    1
    30    18    21    1
@<TRIPOS>MOLECULE
*****
 27 30 0 0 0
SMALL
GASTEIGER

@<TRIPOS>ATOM
      1 C          64.1160   89.7106   13.7218 C.2     1  UNL1        0.2440
      2 O          64.7905   90.2355   14.9545 O.2     1  UNL1       -0.2731
      3 N          63.8708   88.2386   13.5701 N.am    1  UNL1       -0.2747
      4 C          64.3000   87.2915   14.6512 C.3     1  UNL1        0.1149
      5 C          64.0547   85.8194   14.4995 C.3     1  UNL1        0.1121
      6 N          63.3802   85.2946   13.2668 N.pl3   1  UNL1       -0.3071
      7 C          62.9510   86.2417   12.1858 C.3     1  UNL1        0.1121
      8 C          63.1963   87.7137   12.3374 C.3     1  UNL1        0.1149
      9 C          63.1349   83.8225   13.1151 C.2     1  UNL1        0.0295
     10 C          62.7114   83.0067   14.3003 C.2     1  UNL1        0.0120
     11 C          62.4660   81.5346   14.1486 C.2     1  UNL1        0.0216
     12 C          62.6443   80.8785   12.8115 C.2     1  UNL1        0.1008
     13 N          62.4766   79.4579   12.3603 N.2     1  UNL1       -0.1482
     14 N          62.7966   79.3958   10.8962 N.2     1  UNL1       -0.1467
     15 C          63.1620   80.7781   10.4425 C.2     1  UNL1        0.1198
     16 C          63.0679   81.6945   11.6263 C.2     1  UNL1        0.0238
     17 C          63.3132   83.1665   11.7780 C.3     1  UNL1        0.0705
     18 N          64.4475   91.9302   12.4129 N.3     1  UNL1       -0.3116
     19 C          63.6868   90.6578   12.6407 C.3     1  UNL1        0.1514
     20 H          65.2193   91.9885   13.0772 H       1  UNL1        0.1195
     21 H          63.8246   92.7270   12.5447 H       1  UNL1        0.1195
     22 C          62.4967   90.3323   11.7875 C.ar    1  UNL1        0.0005
     23 C          61.1402   90.1961   12.4131 C.ar    1  UNL1       -0.0025
     24 C          59.9502   89.8707   11.5600 C.ar    1  UNL1       -0.0003
     25 C          60.1166   89.6814   10.0813 C.ar    1  UNL1       -0.0000
     26 C          61.4731   89.8176    9.4557 C.ar    1  UNL1       -0.0003
     27 C          62.6632   90.1431   10.3089 C.ar    1  UNL1       -0.0025
@<TRIPOS>BOND
     1    19    18    1
     2    19     1    1
     3     1     2    2
     4     1     3   am
     5     3     4    1
     6     4     5    1
     7     5     6    1
     8     6     9    1
     9     9    10    2
    10    10    11    1
    11    11    12    2
    12    12    13    1
    13    13    14    2
    14    14    15    1
    15    15    16    2
    16    16    17    1
    17     6     7    1
    18     7     8    1
    19    19    22    1
    20    22    23   ar
    21    23    24   ar
    22    24    25   ar
    23    25    26   ar
    24    26    27   ar
    25     8     3    1
    26    27    22   ar
    27    17     9    1
    28    16    12    1
    29    18    20    1
    30    18    21    1
@<TRIPOS>MOLECULE
*****
 27 30 0 0 0
SMALL
GASTEIGER

@<TRIPOS>ATOM
      1 C          60.4345   88.4216    8.6446 C.2     1  UNL1        0.2440
      2 O          59.7790   89.2656    7.5920 O.2     1  UNL1       -0.2731
      3 N          61.3283   89.0583    9.6673 N.am    1  UNL1       -0.2747
      4 C          61.5666   90.5389    9.6372 C.3     1  UNL1        0.1149
      5 C          62.4605   91.1755   10.6599 C.3     1  UNL1        0.1121
      6 N          63.1159   90.3316   11.7125 N.pl3   1  UNL1       -0.3071
      7 C          62.8776   88.8510   11.7425 C.3     1  UNL1        0.1121
      8 C          61.9838   88.2143   10.7199 C.3     1  UNL1        0.1149
      9 C          64.0098   90.9682   12.7352 C.2     1  UNL1        0.0295
     10 C          65.2901   91.6229   12.3087 C.2     1  UNL1        0.0120
     11 C          66.1840   92.2595   13.3314 C.2     1  UNL1        0.0216
     12 C          65.7974   92.2413   14.7805 C.2     1  UNL1        0.1008
     13 N          66.4716   92.7832   16.0060 N.2     1  UNL1       -0.1482
     14 N          65.6079   92.4634   17.1899 N.2     1  UNL1       -0.1467
     15 C          64.3999   91.7238   16.6962 C.2     1  UNL1        0.1198
     16 C          64.5170   91.5866   15.2071 C.2     1  UNL1        0.0238
     17 C          63.6232   90.9500   14.1844 C.3     1  UNL1        0.0705
     18 N          58.8596   86.3883    8.2772 N.3     1  UNL1       -0.3116
     19 C          60.1961   86.9410    8.6747 C.3     1  UNL1        0.1514
     20 H          58.2384   87.1545    8.0177 H       1  UNL1        0.1195
     21 H          58.4572   85.8749    9.0613 H       1  UNL1        0.1195
     22 C          61.2945   86.0131    9.1023 C.ar    1  UNL1        0.0005
     23 C          62.2985   85.5271    8.0995 C.ar    1  UNL1       -0.0025
     24 C          63.3969   84.5993    8.5270 C.ar    1  UNL1       -0.0003
     25 C          63.4911   84.1574    9.9573 C.ar    1  UNL1       -0.0000
     26 C          62.4870   84.6434   10.9601 C.ar    1  UNL1       -0.0003
     27 C          61.3887   85.5713   10.5325 C.ar    1  UNL1       -0.0025
@<TRIPOS>BOND
     1    19    18    1
     2    19     1    1
     3     1     2    2
     4     1     3   am
     5     3     4    1
     6     4     5    1
     7     5     6    1
     8     6     9    1
     9     9    10    2
    10    10    11    1
    11    11    12    2
    12    12    13    1
    13    13    14    2
    14    14    15    1
    15    15    16    2
    16    16    17    1
    17     6     7    1
    18     7     8    1
    19    19    22    1
    20    22    23   ar
    21    23    24   ar
    22    24    25   ar
    23    25    26   ar
    24    26    27   ar
    25     8     3    1
    26    27    22   ar
    27    17     9    1
    28    16    12    1
    29    18    20    1
    30    18    21    1
