@<TRIPOS>MOLECULE
*****
 67 75 0 0 0
SMALL
GASTEIGER

@<TRIPOS>ATOM
      1 N          61.8684   94.7590   -6.6833 N.3     1  UNL1       -0.1862
      2 C          60.7089   94.1695   -7.4303 C.3     1  UNL1        0.1775
      3 C          59.3416   94.1687   -6.8134 C.2     1  UNL1        0.2452
      4 O          58.1821   93.5792   -7.5604 O.2     1  UNL1       -0.2732
      5 N          59.1339   94.7574   -5.4495 N.am    1  UNL1       -0.2541
      6 C          57.7666   94.7566   -4.8325 C.3     1  UNL1        0.1577
      7 C          57.5589   95.3453   -3.4687 C.2     1  UNL1        0.2445
      8 O          56.1916   95.3445   -2.8517 O.2     1  UNL1       -0.2731
      9 N          58.7184   95.9348   -2.7216 N.am    1  UNL1       -0.2705
     10 C          60.0857   95.9356   -3.3385 C.3     1  UNL1        0.1359
     11 C          60.2934   95.3469   -4.7025 C.3     1  UNL1        0.1908
     12 N          61.6607   95.3477   -5.3195 N.am    1  UNL1       -0.1863
     13 C          62.8202   95.9372   -4.5724 C.2     1  UNL1        0.3191
     14 O          62.6125   96.5258   -3.2085 O.2     1  UNL1       -0.2512
     15 N          64.1875   95.9380   -5.1893 N.am    1  UNL1       -0.2836
     16 H          64.3238   95.5516   -6.0845 H       1  UNL1        0.1513
     17 C          63.2357   94.7598   -7.3003 C.3     1  UNL1        0.1188
     18 C          64.5824   92.7404   -6.3739 C.2     1  UNL1       -0.0034
     19 C          63.9561   93.4642   -7.5288 C.2     1  UNL1       -0.0071
     20 C          56.6071   94.1671   -5.5795 C.3     1  UNL1        0.0556
     21 C          56.0756   92.8180   -5.1958 C.ar    1  UNL1       -0.0198
     22 C          56.3218   92.2790   -3.8178 C.ar    1  UNL1       -0.0011
     23 C          55.7903   90.9298   -3.4341 C.ar    1  UNL1        0.0363
     24 C          55.0125   90.1196   -4.4284 C.ar    1  UNL1        0.1337
     25 O          54.4810   88.7705   -4.0447 O.3     1  UNL1       -0.5055
     26 C          54.7662   90.6586   -5.8065 C.ar    1  UNL1        0.0363
     27 C          55.2978   92.0078   -6.1902 C.ar    1  UNL1       -0.0011
     28 H          54.6348   88.4338   -3.1839 H       1  UNL1        0.2922
     29 C          58.5107   96.5235   -1.3577 C.3     1  UNL1        0.1217
     30 C          59.3157   96.0240   -0.1947 C.ar    1  UNL1        0.0135
     31 C          60.4426   96.8519    0.3482 C.ar    1  UNL1       -0.0012
     32 C          61.2476   96.3525    1.5111 C.ar    1  UNL1       -0.0002
     33 C          60.9257   95.0253    2.1313 C.ar    1  UNL1        0.0016
     34 C          59.7988   94.1974    1.5885 C.ar    1  UNL1        0.0214
     35 C          59.2520   92.8596    1.9903 C.ar    1  UNL1        0.0722
     36 C          58.1091   92.5323    1.0757 C.ar    1  UNL1        0.0805
     37 N          57.9495   93.6676    0.1086 N.ar    1  UNL1       -0.3241
     38 C          56.9254   93.7581   -0.9837 C.3     1  UNL1        0.1305
     39 C          58.9938   94.6967    0.4255 C.ar    1  UNL1        0.0577
     40 C          59.7591   92.0001    3.1103 C.2     1  UNL1        0.2510
     41 O          61.1592   91.4634    3.0689 O.2     1  UNL1       -0.2698
     42 N          58.8661   91.6774    4.2715 N.am    1  UNL1       -0.2791
     43 H          57.9472   92.0296    4.2986 H       1  UNL1        0.1552
     44 C          59.3732   90.8179    5.3914 C.ar    1  UNL1        0.0701
     45 C          58.4806   89.7787    6.0024 C.ar    1  UNL1        0.0191
     46 C          58.9876   88.9192    7.1223 C.ar    1  UNL1        0.0356
     47 C          60.3871   89.0989    7.6312 C.ar    1  UNL1        0.1318
     48 N          61.2797   90.1382    7.0202 N.ar    1  UNL1       -0.2279
     49 C          60.7727   90.9977    5.9003 C.ar    1  UNL1        0.1149
     50 N          60.8941   88.2395    8.7511 N.pl3   1  UNL1       -0.2932
     51 C          60.4287   86.8190    8.8763 C.3     1  UNL1        0.0935
     52 C          60.9356   85.9595    9.9962 C.3     1  UNL1        0.0375
     53 C          61.9081   86.5204   10.9909 C.3     1  UNL1        0.0609
     54 C          62.3737   87.9408   10.8658 C.3     1  UNL1        0.0375
     55 C          61.8666   88.8004    9.7459 C.3     1  UNL1        0.0935
     56 N          62.4152   85.6609   12.1108 N.3     1  UNL1       -0.2738
     57 C          63.1096   86.1452   13.3490 C.3     1  UNL1        0.0721
     58 C          63.4404   84.9498   14.1927 C.3     1  UNL1        0.0188
     59 C          62.9504   83.7266   13.4757 C.3     1  UNL1        0.0188
     60 C          62.3168   84.1662   12.1891 C.3     1  UNL1        0.0721
     61 C          65.3470   96.5274   -4.4424 C.3     1  UNL1        0.1177
     62 C          65.4535   96.3447   -2.9574 C.ar    1  UNL1       -0.0025
     63 C          64.3497   95.6629   -2.2045 C.ar    1  UNL1       -0.0026
     64 C          64.4562   95.4802   -0.7195 C.ar    1  UNL1       -0.0003
     65 C          65.6665   95.9792    0.0127 C.ar    1  UNL1       -0.0000
     66 C          66.7704   96.6609   -0.7402 C.ar    1  UNL1       -0.0003
     67 C          66.6639   96.8437   -2.2252 C.ar    1  UNL1       -0.0026
@<TRIPOS>BOND
     1    18    19    2
     2    19    17    1
     3    17     1    1
     4     1     2    1
     5     2     3    1
     6     3     4    2
     7     3     5   am
     8     5     6    1
     9     6    20    1
    10    20    21    1
    11    21    22   ar
    12    22    23   ar
    13    23    24   ar
    14    24    25    1
    15    24    26   ar
    16    26    27   ar
    17     6     7    1
    18     7     8    2
    19     7     9   am
    20     9    29    1
    21    29    30    1
    22    30    31   ar
    23    31    32   ar
    24    32    33   ar
    25    33    34   ar
    26    34    35   ar
    27    35    40    1
    28    40    41    2
    29    40    42   am
    30    42    44    1
    31    44    45   ar
    32    45    46   ar
    33    46    47   ar
    34    47    50    1
    35    50    51    1
    36    51    52    1
    37    52    53    1
    38    53    56    1
    39    56    57    1
    40    57    58    1
    41    58    59    1
    42    59    60    1
    43    53    54    1
    44    54    55    1
    45    47    48   ar
    46    48    49   ar
    47    35    36   ar
    48    36    37   ar
    49    37    38    1
    50    37    39   ar
    51     9    10    1
    52    10    11    1
    53    11    12    1
    54    12    13   am
    55    13    14    2
    56    13    15   am
    57    15    61    1
    58    61    62    1
    59    62    63   ar
    60    63    64   ar
    61    64    65   ar
    62    65    66   ar
    63    66    67   ar
    64    12     1    1
    65    67    62   ar
    66    11     5    1
    67    27    21   ar
    68    39    30   ar
    69    39    34   ar
    70    49    44   ar
    71    55    50    1
    72    60    56    1
    73    25    28    1
    74    42    43    1
    75    15    16    1
@<TRIPOS>MOLECULE
*****
 67 75 0 0 0
SMALL
GASTEIGER

@<TRIPOS>ATOM
      1 N          56.9399   96.6951   -6.1604 N.3     1  UNL1       -0.1862
      2 C          58.2306   96.8153   -6.9151 C.3     1  UNL1        0.1775
      3 C          59.5376   96.6693   -6.1937 C.2     1  UNL1        0.2452
      4 O          60.8283   96.7896   -6.9484 O.2     1  UNL1       -0.2732
      5 N          59.5539   96.4029   -4.7176 N.am    1  UNL1       -0.2541
      6 C          60.8609   96.2568   -3.9963 C.3     1  UNL1        0.1577
      7 C          60.8772   95.9905   -2.5202 C.2     1  UNL1        0.2445
      8 O          62.1842   95.8444   -1.7988 O.2     1  UNL1       -0.2731
      9 N          59.5865   95.8702   -1.7655 N.am    1  UNL1       -0.2705
     10 C          58.2794   96.0162   -2.4869 C.3     1  UNL1        0.1359
     11 C          58.2632   96.2826   -3.9630 C.3     1  UNL1        0.1908
     12 N          56.9562   96.4287   -4.6844 N.am    1  UNL1       -0.1863
     13 C          55.6654   96.3084   -3.9296 C.2     1  UNL1        0.3191
     14 O          55.6817   96.0420   -2.4536 O.2     1  UNL1       -0.2512
     15 N          54.3584   96.4545   -4.6510 N.am    1  UNL1       -0.2836
     16 H          54.3477   96.6293   -5.6198 H       1  UNL1        0.1513
     17 C          55.6329   96.8411   -6.8818 C.3     1  UNL1        0.1188
     18 C          55.5827   94.2845   -7.3410 C.2     1  UNL1       -0.0034
     19 C          55.0139   95.6550   -7.5600 C.2     1  UNL1       -0.0071
     20 C          62.1516   96.3771   -4.7509 C.3     1  UNL1        0.0556
     21 C          62.9106   95.1433   -5.1403 C.ar    1  UNL1       -0.0198
     22 C          62.6972   94.5265   -6.4908 C.ar    1  UNL1       -0.0011
     23 C          63.4561   93.2926   -6.8802 C.ar    1  UNL1        0.0363
     24 C          64.4285   92.6756   -5.9190 C.ar    1  UNL1        0.1337
     25 O          65.1874   91.4417   -6.3084 O.3     1  UNL1       -0.5055
     26 C          64.6419   93.2924   -4.5684 C.ar    1  UNL1        0.0363
     27 C          63.8829   94.5262   -4.1791 C.ar    1  UNL1       -0.0011
     28 H          65.0541   91.0564   -7.1521 H       1  UNL1        0.2922
     29 C          59.6028   95.6038   -0.2894 C.3     1  UNL1        0.1217
     30 C          60.0469   94.2672    0.2266 C.ar    1  UNL1        0.0135
     31 C          60.4287   93.1811   -0.7349 C.ar    1  UNL1       -0.0012
     32 C          60.8728   91.8445   -0.2189 C.ar    1  UNL1       -0.0002
     33 C          60.9352   91.5941    1.2587 C.ar    1  UNL1        0.0016
     34 C          60.5534   92.6802    2.2202 C.ar    1  UNL1        0.0214
     35 C          60.5153   92.7260    3.7191 C.ar    1  UNL1        0.0722
     36 C          60.0476   94.0909    4.1293 C.ar    1  UNL1        0.0805
     37 N          59.7967   94.8886    2.8841 N.ar    1  UNL1       -0.3241
     38 C          59.3173   96.3088    2.8285 C.3     1  UNL1        0.1305
     39 C          60.1093   94.0167    1.7042 C.ar    1  UNL1        0.0577
     40 C          60.8808   91.6038    4.6451 C.2     1  UNL1        0.2510
     41 O          62.1467   90.8305    4.4232 O.2     1  UNL1       -0.2698
     42 N          59.9802   91.2551    5.7928 N.am    1  UNL1       -0.2791
     43 H          59.1493   91.7628    5.9384 H       1  UNL1        0.1552
     44 C          60.3456   90.1331    6.7188 C.ar    1  UNL1        0.0701
     45 C          61.0406   90.4268    8.0152 C.ar    1  UNL1        0.0191
     46 C          61.4060   89.3048    8.9413 C.ar    1  UNL1        0.0356
     47 C          61.0764   87.8891    8.5709 C.ar    1  UNL1        0.1318
     48 N          60.3813   87.5954    7.2745 N.ar    1  UNL1       -0.2279
     49 C          60.0159   88.7174    6.3484 C.ar    1  UNL1        0.1149
     50 N          61.4417   86.7670    9.4969 N.pl3   1  UNL1       -0.2932
     51 C          62.2262   85.5961    8.9834 C.3     1  UNL1        0.0935
     52 C          62.5916   84.4740    9.9093 C.3     1  UNL1        0.0375
     53 C          62.1726   84.5228   11.3488 C.3     1  UNL1        0.0609
     54 C          61.3881   85.6936   11.8623 C.3     1  UNL1        0.0375
     55 C          61.0227   86.8158   10.9363 C.3     1  UNL1        0.0935
     56 N          62.5379   83.4007   12.2747 N.3     1  UNL1       -0.2738
     57 C          63.0479   83.5460   13.6779 C.3     1  UNL1        0.0721
     58 C          63.2826   82.1714   14.2305 C.3     1  UNL1        0.0188
     59 C          62.9177   81.1765   13.1688 C.3     1  UNL1        0.0188
     60 C          62.4574   81.9363   11.9601 C.3     1  UNL1        0.0721
     61 C          53.0677   96.3342   -3.8963 C.3     1  UNL1        0.1177
     62 C          51.7605   96.4490   -4.6230 C.ar    1  UNL1       -0.0025
     63 C          50.5018   96.7403   -3.8609 C.ar    1  UNL1       -0.0026
     64 C          49.1946   96.8552   -4.5876 C.ar    1  UNL1       -0.0003
     65 C          49.1461   96.6787   -6.0764 C.ar    1  UNL1       -0.0000
     66 C          50.4048   96.3873   -6.8385 C.ar    1  UNL1       -0.0003
     67 C          51.7120   96.2725   -6.1118 C.ar    1  UNL1       -0.0026
@<TRIPOS>BOND
     1    18    19    2
     2    19    17    1
     3    17     1    1
     4     1     2    1
     5     2     3    1
     6     3     4    2
     7     3     5   am
     8     5     6    1
     9     6    20    1
    10    20    21    1
    11    21    22   ar
    12    22    23   ar
    13    23    24   ar
    14    24    25    1
    15    24    26   ar
    16    26    27   ar
    17     6     7    1
    18     7     8    2
    19     7     9   am
    20     9    29    1
    21    29    30    1
    22    30    31   ar
    23    31    32   ar
    24    32    33   ar
    25    33    34   ar
    26    34    35   ar
    27    35    40    1
    28    40    41    2
    29    40    42   am
    30    42    44    1
    31    44    45   ar
    32    45    46   ar
    33    46    47   ar
    34    47    50    1
    35    50    51    1
    36    51    52    1
    37    52    53    1
    38    53    56    1
    39    56    57    1
    40    57    58    1
    41    58    59    1
    42    59    60    1
    43    53    54    1
    44    54    55    1
    45    47    48   ar
    46    48    49   ar
    47    35    36   ar
    48    36    37   ar
    49    37    38    1
    50    37    39   ar
    51     9    10    1
    52    10    11    1
    53    11    12    1
    54    12    13   am
    55    13    14    2
    56    13    15   am
    57    15    61    1
    58    61    62    1
    59    62    63   ar
    60    63    64   ar
    61    64    65   ar
    62    65    66   ar
    63    66    67   ar
    64    12     1    1
    65    67    62   ar
    66    11     5    1
    67    27    21   ar
    68    39    30   ar
    69    39    34   ar
    70    49    44   ar
    71    55    50    1
    72    60    56    1
    73    25    28    1
    74    42    43    1
    75    15    16    1
@<TRIPOS>MOLECULE
*****
 67 75 0 0 0
SMALL
GASTEIGER

@<TRIPOS>ATOM
      1 N          61.8393   94.6763   -6.8452 N.3     1  UNL1       -0.1862
      2 C          60.5943   94.1458   -7.4921 C.3     1  UNL1        0.1775
      3 C          59.2789   94.2408   -6.7774 C.2     1  UNL1        0.2452
      4 O          58.0338   93.7103   -7.4243 O.2     1  UNL1       -0.2732
      5 N          59.2086   94.8662   -5.4158 N.am    1  UNL1       -0.2541
      6 C          57.8933   94.9611   -4.7011 C.3     1  UNL1        0.1577
      7 C          57.8229   95.5865   -3.3395 C.2     1  UNL1        0.2445
      8 O          56.5076   95.6815   -2.6248 O.2     1  UNL1       -0.2731
      9 N          59.0680   96.1170   -2.6926 N.am    1  UNL1       -0.2705
     10 C          60.3834   96.0220   -3.4073 C.3     1  UNL1        0.1359
     11 C          60.4537   95.3966   -4.7690 C.3     1  UNL1        0.1908
     12 N          61.7690   95.3016   -5.4837 N.am    1  UNL1       -0.1863
     13 C          63.0141   95.8321   -4.8367 C.2     1  UNL1        0.3191
     14 O          62.9438   96.4575   -3.4752 O.2     1  UNL1       -0.2512
     15 N          64.3295   95.7372   -5.5515 N.am    1  UNL1       -0.2836
     16 H          64.3756   95.3267   -6.4451 H       1  UNL1        0.1513
     17 C          63.1547   94.5813   -7.5599 C.3     1  UNL1        0.1188
     18 C          63.8007   92.3991   -6.3067 C.2     1  UNL1       -0.0034
     19 C          63.9625   93.3200   -7.4796 C.2     1  UNL1       -0.0071
     20 C          56.6482   94.4307   -5.3479 C.3     1  UNL1        0.0556
     21 C          55.3159   95.0365   -5.0195 C.ar    1  UNL1       -0.0198
     22 C          54.5259   95.7348   -6.0864 C.ar    1  UNL1       -0.0011
     23 C          53.1936   96.3406   -5.7579 C.ar    1  UNL1        0.0363
     24 C          52.6512   96.2481   -4.3625 C.ar    1  UNL1        0.1337
     25 O          51.3189   96.8539   -4.0340 O.3     1  UNL1       -0.5055
     26 C          53.4412   95.5498   -3.2955 C.ar    1  UNL1        0.0363
     27 C          54.7735   94.9440   -3.6240 C.ar    1  UNL1       -0.0011
     28 H          50.8254   97.2901   -4.7005 H       1  UNL1        0.2922
     29 C          58.9977   96.7424   -1.3310 C.3     1  UNL1        0.1217
     30 C          59.8023   96.1716   -0.2010 C.ar    1  UNL1        0.0135
     31 C          61.0609   96.8557    0.2439 C.ar    1  UNL1       -0.0012
     32 C          61.8655   96.2849    1.3739 C.ar    1  UNL1       -0.0002
     33 C          61.4115   95.0301    2.0589 C.ar    1  UNL1        0.0016
     34 C          60.1530   94.3460    1.6139 C.ar    1  UNL1        0.0214
     35 C          59.4613   93.1049    2.0949 C.ar    1  UNL1        0.0722
     36 C          58.2292   92.9087    1.2622 C.ar    1  UNL1        0.0805
     37 N          58.1594   94.0284    0.2666 N.ar    1  UNL1       -0.3241
     38 C          57.0886   94.2253   -0.7652 C.3     1  UNL1        0.1305
     39 C          59.3484   94.9167    0.4839 C.ar    1  UNL1        0.0577
     40 C          59.9210   92.2161    3.2124 C.2     1  UNL1        0.2510
     41 O          61.3737   91.8662    3.3432 O.2     1  UNL1       -0.2698
     42 N          58.9280   91.6774    4.1991 N.am    1  UNL1       -0.2791
     43 H          57.9745   91.9071    4.1133 H       1  UNL1        0.1552
     44 C          59.3876   90.7886    5.3166 C.ar    1  UNL1        0.0701
     45 C          58.5085   89.6720    5.7967 C.ar    1  UNL1        0.0191
     46 C          58.9681   88.7832    6.9142 C.ar    1  UNL1        0.0356
     47 C          60.3067   89.0110    7.5516 C.ar    1  UNL1        0.1318
     48 N          61.1857   90.1276    7.0715 N.ar    1  UNL1       -0.2279
     49 C          60.7262   91.0164    5.9540 C.ar    1  UNL1        0.1149
     50 N          60.7663   88.1223    8.6691 N.pl3   1  UNL1       -0.2932
     51 C          61.5418   86.8748    8.3648 C.3     1  UNL1        0.0935
     52 C          62.0014   85.9860    9.4822 C.3     1  UNL1        0.0375
     53 C          61.6857   86.3446   10.9041 C.3     1  UNL1        0.0609
     54 C          60.9102   87.5920   11.2085 C.3     1  UNL1        0.0375
     55 C          60.4505   88.4809   10.0910 C.3     1  UNL1        0.0935
     56 N          62.1453   85.4559   12.0216 N.3     1  UNL1       -0.2738
     57 C          62.6413   85.9101   13.3623 C.3     1  UNL1        0.0721
     58 C          62.9922   84.6917   14.1639 C.3     1  UNL1        0.0188
     59 C          62.7130   83.4844   13.3185 C.3     1  UNL1        0.0188
     60 C          62.1896   83.9568   11.9945 C.3     1  UNL1        0.0721
     61 C          65.5745   96.2676   -4.9046 C.3     1  UNL1        0.1177
     62 C          66.8957   96.1394   -5.6033 C.ar    1  UNL1       -0.0025
     63 C          67.0125   95.2954   -6.8377 C.ar    1  UNL1       -0.0026
     64 C          68.3337   95.1672   -7.5364 C.ar    1  UNL1       -0.0003
     65 C          69.5380   95.8831   -7.0006 C.ar    1  UNL1       -0.0000
     66 C          69.4212   96.7271   -5.7660 C.ar    1  UNL1       -0.0003
     67 C          68.1000   96.8553   -5.0674 C.ar    1  UNL1       -0.0026
@<TRIPOS>BOND
     1    18    19    2
     2    19    17    1
     3    17     1    1
     4     1     2    1
     5     2     3    1
     6     3     4    2
     7     3     5   am
     8     5     6    1
     9     6    20    1
    10    20    21    1
    11    21    22   ar
    12    22    23   ar
    13    23    24   ar
    14    24    25    1
    15    24    26   ar
    16    26    27   ar
    17     6     7    1
    18     7     8    2
    19     7     9   am
    20     9    29    1
    21    29    30    1
    22    30    31   ar
    23    31    32   ar
    24    32    33   ar
    25    33    34   ar
    26    34    35   ar
    27    35    40    1
    28    40    41    2
    29    40    42   am
    30    42    44    1
    31    44    45   ar
    32    45    46   ar
    33    46    47   ar
    34    47    50    1
    35    50    51    1
    36    51    52    1
    37    52    53    1
    38    53    56    1
    39    56    57    1
    40    57    58    1
    41    58    59    1
    42    59    60    1
    43    53    54    1
    44    54    55    1
    45    47    48   ar
    46    48    49   ar
    47    35    36   ar
    48    36    37   ar
    49    37    38    1
    50    37    39   ar
    51     9    10    1
    52    10    11    1
    53    11    12    1
    54    12    13   am
    55    13    14    2
    56    13    15   am
    57    15    61    1
    58    61    62    1
    59    62    63   ar
    60    63    64   ar
    61    64    65   ar
    62    65    66   ar
    63    66    67   ar
    64    12     1    1
    65    67    62   ar
    66    11     5    1
    67    27    21   ar
    68    39    30   ar
    69    39    34   ar
    70    49    44   ar
    71    55    50    1
    72    60    56    1
    73    25    28    1
    74    42    43    1
    75    15    16    1
