@<TRIPOS>MOLECULE
*****
 36 41 0 0 0
SMALL
GASTEIGER

@<TRIPOS>ATOM
      1 C          63.2965   88.2598   12.9914 C.3     1  UNL1        0.1095
      2 C          64.1472   87.9197   14.1790 C.3     1  UNL1        0.1597
      3 O          64.4548   86.4860   14.4955 O.3     1  UNL1       -0.3533
      4 C          63.9115   85.3925   13.6243 C.3     1  UNL1        0.1315
      5 C          64.0450   83.8998   13.6867 C.3     1  UNL1        0.0311
      6 C          63.2767   83.3174   12.5376 C.3     1  UNL1        0.0041
      7 C          62.6684   84.4501   11.7650 C.3     1  UNL1        0.0203
      8 C          63.0607   85.7327   12.4366 C.3     1  UNL1        0.1066
      9 N          62.7532   87.1663   12.1202 N.3     1  UNL1       -0.1534
     10 C          62.9890   89.6935   12.6750 C.3     1  UNL1        0.0261
     11 C          62.2104   90.9650   12.5109 C.3     1  UNL1        0.0020
     12 C          61.5258   89.7247   13.0039 C.3     1  UNL1        0.0020
     13 C          64.3453   90.1601   12.2361 C.3     1  UNL1        0.0867
     14 C          65.7258   92.2920   13.8556 C.3     1  UNL1        0.0948
     15 C          65.3921   92.4580   12.4027 C.2     1  UNL1        0.2261
     16 O          64.7031   91.3517   11.6603 O.2     1  UNL1       -0.2749
     17 N          65.7474   93.7305   11.6922 N.am    1  UNL1       -0.2794
     18 C          66.4340   94.9176   12.3001 C.3     1  UNL1        0.0952
     19 C          66.5893   95.9599   11.2326 C.3     1  UNL1        0.0233
     20 C          65.9989   95.4170    9.9651 C.3     1  UNL1        0.0233
     21 C          65.4785   94.0391   10.2491 C.3     1  UNL1        0.0952
     22 C          65.0559   92.7049   10.8151 C.3     1  UNL1        0.1131
     23 N          65.3896   92.5389   12.2680 N.am    1  UNL1       -0.2761
     24 C          65.0343   91.2664   12.9785 C.2     1  UNL1        0.2258
     25 O          65.3680   91.1004   14.4315 O.2     1  UNL1       -0.2749
     26 C          66.0786   93.6452   13.0105 C.3     1  UNL1        0.1131
     27 S          61.9025   87.5064   10.9325 S.O2    1  UNL1        0.0634
     28 O          60.6856   87.0268   11.6669 O.2     1  UNL1       -0.1528
     29 O          62.8773   88.0541    9.9327 O.2     1  UNL1       -0.1528
     30 C          61.0516   87.8465    9.7449 C.ar    1  UNL1        0.1223
     31 C          60.3773   86.7548    8.9682 C.ar    1  UNL1        0.0208
     32 C          59.5264   87.0948    7.7806 C.ar    1  UNL1        0.0128
     33 C          59.3500   88.5266    7.3697 C.ar    1  UNL1        0.0578
     34 CL         58.5939   89.2091    6.2684 Cl      1  UNL1       -0.0822
     35 C          60.0243   89.6183    8.1464 C.ar    1  UNL1        0.0128
     36 C          60.8752   89.2783    9.3341 C.ar    1  UNL1        0.0208
@<TRIPOS>BOND
     1    14    15    1
     2    15    16    2
     3    15    17   am
     4    17    18    1
     5    18    19    1
     6    19    20    1
     7    20    21    1
     8    21    22    1
     9    22    23    1
    10    23    24   am
    11    24    25    2
    12    24    13    1
    13    13    10    1
    14     1    10    1
    15     1     2    1
    16     2     3    1
    17     3     4    1
    18     4     5    1
    19     5     6    1
    20     6     7    1
    21     8     7    1
    22     8     9    1
    23     9    27    1
    24    27    28    2
    25    27    29    2
    26    27    30    1
    27    30    31   ar
    28    31    32   ar
    29    32    33   ar
    30    33    34    1
    31    33    35   ar
    32    35    36   ar
    33    10    11    1
    34    11    12    1
    35    23    26    1
    36    21    17    1
    37    12    10    1
    38    26    18    1
    39     9     1    1
    40    36    30   ar
    41     8     4    1
@<TRIPOS>MOLECULE
*****
 36 41 0 0 0
SMALL
GASTEIGER

@<TRIPOS>ATOM
      1 C          63.0031   90.3733   11.5528 C.3     1  UNL1        0.1095
      2 C          63.1946   91.2466   10.3485 C.3     1  UNL1        0.1597
      3 O          64.2814   92.2804   10.3368 O.3     1  UNL1       -0.3533
      4 C          65.1767   92.4408   11.5295 C.3     1  UNL1        0.1315
      5 C          66.3243   93.3664   11.8059 C.3     1  UNL1        0.0311
      6 C          66.8420   93.0651   13.1811 C.3     1  UNL1        0.0041
      7 C          66.0144   91.9533   13.7547 C.3     1  UNL1        0.0203
      8 C          64.9852   91.5674   12.7339 C.3     1  UNL1        0.1066
      9 N          63.8983   90.5337   12.7456 N.3     1  UNL1       -0.1534
     10 C          61.9162   89.3395   11.5645 C.3     1  UNL1        0.0261
     11 C          60.5426   88.7380   11.5283 C.3     1  UNL1        0.0020
     12 C          60.7129   90.2251   11.4307 C.3     1  UNL1        0.0020
     13 C          62.7420   88.0948   11.7023 C.3     1  UNL1        0.0867
     14 C          62.2744   85.8837    9.7109 C.3     1  UNL1        0.0948
     15 C          62.6212   85.6287   11.1478 C.2     1  UNL1        0.2261
     16 O          62.8400   86.7813   12.0824 O.2     1  UNL1       -0.2749
     17 N          62.7491   84.2210   11.6500 N.am    1  UNL1       -0.2794
     18 C          62.5600   82.9744   10.8375 C.3     1  UNL1        0.0952
     19 C          62.7826   81.7959   11.7383 C.3     1  UNL1        0.0233
     20 C          63.1092   82.3140   13.1075 C.3     1  UNL1        0.0233
     21 C          63.0885   83.8130   13.0530 C.3     1  UNL1        0.0952
     22 C          62.9978   85.2796   12.7069 C.3     1  UNL1        0.1131
     23 N          62.6510   85.5346   11.2700 N.am    1  UNL1       -0.2761
     24 C          62.5231   86.9423   10.7677 C.2     1  UNL1        0.2258
     25 O          62.1763   87.1973    9.3308 O.2     1  UNL1       -0.2749
     26 C          62.4322   84.3821   10.3353 C.3     1  UNL1        0.1131
     27 S          63.7068   89.6603   13.9500 S.O2    1  UNL1        0.0634
     28 O          62.6825   90.6184   14.4818 O.2     1  UNL1       -0.1528
     29 O          64.6542   88.5194   13.7254 O.2     1  UNL1       -0.1528
     30 C          63.5152   88.7870   15.1544 C.ar    1  UNL1        0.1223
     31 C          63.8920   87.3363   15.0965 C.ar    1  UNL1        0.0208
     32 C          63.7004   86.4629   16.3009 C.ar    1  UNL1        0.0128
     33 C          63.1320   87.0404   17.5632 C.ar    1  UNL1        0.0578
     34 CL         62.8140   86.4763   18.9163 Cl      1  UNL1       -0.0822
     35 C          62.7552   88.4911   17.6211 C.ar    1  UNL1        0.0128
     36 C          62.9467   89.3645   16.4167 C.ar    1  UNL1        0.0208
@<TRIPOS>BOND
     1    14    15    1
     2    15    16    2
     3    15    17   am
     4    17    18    1
     5    18    19    1
     6    19    20    1
     7    20    21    1
     8    21    22    1
     9    22    23    1
    10    23    24   am
    11    24    25    2
    12    24    13    1
    13    13    10    1
    14     1    10    1
    15     1     2    1
    16     2     3    1
    17     3     4    1
    18     4     5    1
    19     5     6    1
    20     6     7    1
    21     8     7    1
    22     8     9    1
    23     9    27    1
    24    27    28    2
    25    27    29    2
    26    27    30    1
    27    30    31   ar
    28    31    32   ar
    29    32    33   ar
    30    33    34    1
    31    33    35   ar
    32    35    36   ar
    33    10    11    1
    34    11    12    1
    35    23    26    1
    36    21    17    1
    37    12    10    1
    38    26    18    1
    39     9     1    1
    40    36    30   ar
    41     8     4    1
@<TRIPOS>MOLECULE
*****
 36 41 0 0 0
SMALL
GASTEIGER

@<TRIPOS>ATOM
      1 C          61.1258   89.3796   10.9623 C.3     1  UNL1        0.1095
      2 C          60.4152   90.5535   10.3568 C.3     1  UNL1        0.1597
      3 O          59.6876   90.3995    9.0541 O.3     1  UNL1       -0.3533
      4 C          59.6707   89.0715    8.3570 C.3     1  UNL1        0.1315
      5 C          59.0423   88.6206    7.0718 C.3     1  UNL1        0.0311
      6 C          59.3646   87.1678    6.8830 C.3     1  UNL1        0.0041
      7 C          60.1922   86.7209    8.0515 C.3     1  UNL1        0.0203
      8 C          60.3814   87.8975    8.9625 C.3     1  UNL1        0.1066
      9 N          61.1090   88.0515   10.2651 N.3     1  UNL1       -0.1534
     10 C          61.8534   89.5335   12.2650 C.3     1  UNL1        0.0261
     11 C          62.0906   89.6578   13.7409 C.3     1  UNL1        0.0020
     12 C          60.6940   89.5015   13.2162 C.3     1  UNL1        0.0020
     13 C          63.2655   89.6190   11.7662 C.3     1  UNL1        0.0867
     14 C          64.4678   92.3151   11.1668 C.3     1  UNL1        0.0948
     15 C          64.7337   91.5670   12.4394 C.2     1  UNL1        0.2261
     16 O          64.0992   90.2274   12.6686 O.2     1  UNL1       -0.2749
     17 N          65.6344   92.1587   13.4829 N.am    1  UNL1       -0.2794
     18 C          66.3359   93.4817   13.3947 C.3     1  UNL1        0.0952
     19 C          67.1267   93.6718   14.6551 C.3     1  UNL1        0.0233
     20 C          66.9139   92.4665   15.5222 C.3     1  UNL1        0.0233
     21 C          65.9915   91.5313   14.7978 C.3     1  UNL1        0.0952
     22 C          65.0667   90.8023   13.8532 C.3     1  UNL1        0.1131
     23 N          64.8007   91.5503   12.5805 N.am    1  UNL1       -0.2761
     24 C          63.9001   90.9586   11.5370 C.2     1  UNL1        0.2258
     25 O          63.6341   91.7067   10.2643 O.2     1  UNL1       -0.2749
     26 C          65.4353   92.8899   12.3513 C.3     1  UNL1        0.1131
     27 S          61.8197   86.8775   10.8707 S.O2    1  UNL1        0.0634
     28 O          62.9103   87.0111    9.8495 O.2     1  UNL1       -0.1528
     29 O          60.9335   86.4639   12.0079 O.2     1  UNL1       -0.1528
     30 C          62.5304   85.7035   11.4761 C.ar    1  UNL1        0.1223
     31 C          63.1445   85.8203   12.8396 C.ar    1  UNL1        0.0208
     32 C          63.8553   84.6463   13.4452 C.ar    1  UNL1        0.0128
     33 C          63.9519   83.3557   12.6871 C.ar    1  UNL1        0.0578
     34 CL         64.5693   82.0199   12.9782 Cl      1  UNL1       -0.0822
     35 C          63.3379   83.2389   11.3236 C.ar    1  UNL1        0.0128
     36 C          62.6271   84.4128   10.7180 C.ar    1  UNL1        0.0208
@<TRIPOS>BOND
     1    14    15    1
     2    15    16    2
     3    15    17   am
     4    17    18    1
     5    18    19    1
     6    19    20    1
     7    20    21    1
     8    21    22    1
     9    22    23    1
    10    23    24   am
    11    24    25    2
    12    24    13    1
    13    13    10    1
    14     1    10    1
    15     1     2    1
    16     2     3    1
    17     3     4    1
    18     4     5    1
    19     5     6    1
    20     6     7    1
    21     8     7    1
    22     8     9    1
    23     9    27    1
    24    27    28    2
    25    27    29    2
    26    27    30    1
    27    30    31   ar
    28    31    32   ar
    29    32    33   ar
    30    33    34    1
    31    33    35   ar
    32    35    36   ar
    33    10    11    1
    34    11    12    1
    35    23    26    1
    36    21    17    1
    37    12    10    1
    38    26    18    1
    39     9     1    1
    40    36    30   ar
    41     8     4    1
@<TRIPOS>MOLECULE
*****
 36 41 0 0 0
SMALL
GASTEIGER

@<TRIPOS>ATOM
      1 C          62.8205   90.5762   11.4602 C.3     1  UNL1        0.1095
      2 C          62.9820   91.4707   10.2671 C.3     1  UNL1        0.1597
      3 O          64.1718   92.3786   10.1659 O.3     1  UNL1       -0.3533
      4 C          65.2001   92.3918   11.2579 C.3     1  UNL1        0.1315
      5 C          66.4679   93.1740   11.4332 C.3     1  UNL1        0.0311
      6 C          67.0900   92.7627   12.7347 C.3     1  UNL1        0.0041
      7 C          66.2066   91.7264   13.3637 C.3     1  UNL1        0.0203
      8 C          65.0385   91.4971   12.4510 C.3     1  UNL1        0.1066
      9 N          63.8487   90.5893   12.5521 N.3     1  UNL1       -0.1534
     10 C          61.6306   89.6683   11.5614 C.3     1  UNL1        0.0261
     11 C          60.3069   89.1244   12.0105 C.3     1  UNL1        0.0020
     12 C          60.8317   90.4007   12.5983 C.3     1  UNL1        0.0020
     13 C          62.0164   88.6206   10.5596 C.3     1  UNL1        0.0867
     14 C          59.9142   87.7895    8.5686 C.3     1  UNL1        0.0948
     15 C          61.2348   87.0905    8.7017 C.2     1  UNL1        0.2261
     16 O          62.2335   87.5612    9.7170 O.2     1  UNL1       -0.2749
     17 N          61.5565   85.9209    7.8193 N.am    1  UNL1       -0.2794
     18 C          60.6622   85.3400    6.7643 C.3     1  UNL1        0.0952
     19 C          61.3821   84.1869    6.1302 C.3     1  UNL1        0.0233
     20 C          62.7211   84.0551    6.7931 C.3     1  UNL1        0.0233
     21 C          62.8289   85.1268    7.8372 C.3     1  UNL1        0.0952
     22 C          62.6599   86.2814    8.7950 C.3     1  UNL1        0.1131
     23 N          61.3393   86.9803    8.6620 N.am    1  UNL1       -0.2761
     24 C          61.0176   88.1500    9.5443 C.2     1  UNL1        0.2258
     25 O          59.6971   88.8489    9.4113 O.2     1  UNL1       -0.2749
     26 C          60.3406   86.5096    7.6467 C.3     1  UNL1        0.1131
     27 S          63.6872   89.6947   13.7453 S.O2    1  UNL1        0.0634
     28 O          63.3919   90.8902   14.6017 O.2     1  UNL1       -0.1528
     29 O          63.9346   88.3183   13.2030 O.2     1  UNL1       -0.1528
     30 C          63.5257   88.8001   14.9385 C.ar    1  UNL1        0.1223
     31 C          63.9174   87.3548   14.8507 C.ar    1  UNL1        0.0208
     32 C          63.7558   86.4602   16.0438 C.ar    1  UNL1        0.0128
     33 C          63.2027   87.0109   17.3247 C.ar    1  UNL1        0.0578
     34 CL         62.9139   86.4217   18.6737 Cl      1  UNL1       -0.0822
     35 C          62.8110   88.4562   17.4125 C.ar    1  UNL1        0.0128
     36 C          62.9725   89.3509   16.2193 C.ar    1  UNL1        0.0208
@<TRIPOS>BOND
     1    14    15    1
     2    15    16    2
     3    15    17   am
     4    17    18    1
     5    18    19    1
     6    19    20    1
     7    20    21    1
     8    21    22    1
     9    22    23    1
    10    23    24   am
    11    24    25    2
    12    24    13    1
    13    13    10    1
    14     1    10    1
    15     1     2    1
    16     2     3    1
    17     3     4    1
    18     4     5    1
    19     5     6    1
    20     6     7    1
    21     8     7    1
    22     8     9    1
    23     9    27    1
    24    27    28    2
    25    27    29    2
    26    27    30    1
    27    30    31   ar
    28    31    32   ar
    29    32    33   ar
    30    33    34    1
    31    33    35   ar
    32    35    36   ar
    33    10    11    1
    34    11    12    1
    35    23    26    1
    36    21    17    1
    37    12    10    1
    38    26    18    1
    39     9     1    1
    40    36    30   ar
    41     8     4    1
@<TRIPOS>MOLECULE
*****
 36 41 0 0 0
SMALL
GASTEIGER

@<TRIPOS>ATOM
      1 C          64.4435   90.3222   14.2972 C.3     1  UNL1        0.1095
      2 C          65.5021   91.0591   15.0627 C.3     1  UNL1        0.1597
      3 O          66.1933   92.2371   14.4425 O.3     1  UNL1       -0.3533
      4 C          65.8257   92.6781   13.0567 C.3     1  UNL1        0.1315
      5 C          66.3306   93.7948   12.1918 C.3     1  UNL1        0.0311
      6 C          65.5839   93.7480   10.8917 C.3     1  UNL1        0.0041
      7 C          64.6176   92.6024   10.9531 C.3     1  UNL1        0.0203
      8 C          64.7671   91.9411   12.2912 C.3     1  UNL1        0.1066
      9 N          64.0759   90.7631   12.9114 N.3     1  UNL1       -0.1534
     10 C          63.7523   89.1441   14.9174 C.3     1  UNL1        0.0261
     11 C          62.9378   88.3358   15.8834 C.3     1  UNL1        0.0020
     12 C          63.1571   89.7993   16.1284 C.3     1  UNL1        0.0020
     13 C          64.1074   88.0799   13.9218 C.3     1  UNL1        0.0867
     14 C          65.0759   85.4318   14.9819 C.3     1  UNL1        0.0948
     15 C          64.1175   85.5508   13.8342 C.2     1  UNL1        0.2261
     16 O          63.6791   86.9047   13.3604 O.2     1  UNL1       -0.2749
     17 N          63.5975   84.3157   13.1602 N.am    1  UNL1       -0.2794
     18 C          63.9443   82.9017   13.5215 C.3     1  UNL1        0.0952
     19 C          63.2005   81.9900   12.5912 C.3     1  UNL1        0.0233
     20 C          62.3941   82.8403   11.6550 C.3     1  UNL1        0.0233
     21 C          62.6394   84.2778   12.0067 C.3     1  UNL1        0.0952
     22 C          63.0674   85.6098   12.5739 C.3     1  UNL1        0.1131
     23 N          64.0258   85.4908   13.7216 N.am    1  UNL1       -0.2761
     24 C          64.5458   86.7259   14.3956 C.2     1  UNL1        0.2258
     25 O          65.5042   86.6069   15.5433 O.2     1  UNL1       -0.2749
     26 C          64.4642   84.1369   14.1954 C.3     1  UNL1        0.1131
     27 S          63.0173   90.0261   12.1459 S.O2    1  UNL1        0.0634
     28 O          63.9697   89.8473   11.0009 O.2     1  UNL1       -0.1528
     29 O          61.8370   90.0213   13.0715 O.2     1  UNL1       -0.1528
     30 C          61.9586   89.2891   11.3802 C.ar    1  UNL1        0.1223
     31 C          60.5236   89.3804   11.8072 C.ar    1  UNL1        0.0208
     32 C          59.4650   88.6434   11.0417 C.ar    1  UNL1        0.0128
     33 C          59.8414   87.8152    9.8491 C.ar    1  UNL1        0.0578
     34 CL         59.0672   86.9716    8.8800 Cl      1  UNL1       -0.0822
     35 C          61.2764   87.7239    9.4221 C.ar    1  UNL1        0.0128
     36 C          62.3351   88.4609   10.1877 C.ar    1  UNL1        0.0208
@<TRIPOS>BOND
     1    14    15    1
     2    15    16    2
     3    15    17   am
     4    17    18    1
     5    18    19    1
     6    19    20    1
     7    20    21    1
     8    21    22    1
     9    22    23    1
    10    23    24   am
    11    24    25    2
    12    24    13    1
    13    13    10    1
    14     1    10    1
    15     1     2    1
    16     2     3    1
    17     3     4    1
    18     4     5    1
    19     5     6    1
    20     6     7    1
    21     8     7    1
    22     8     9    1
    23     9    27    1
    24    27    28    2
    25    27    29    2
    26    27    30    1
    27    30    31   ar
    28    31    32   ar
    29    32    33   ar
    30    33    34    1
    31    33    35   ar
    32    35    36   ar
    33    10    11    1
    34    11    12    1
    35    23    26    1
    36    21    17    1
    37    12    10    1
    38    26    18    1
    39     9     1    1
    40    36    30   ar
    41     8     4    1
@<TRIPOS>MOLECULE
*****
 36 41 0 0 0
SMALL
GASTEIGER

@<TRIPOS>ATOM
      1 C          61.3043   95.5054   -3.3065 C.3     1  UNL1        0.1095
      2 C          61.0930   96.0785   -4.6764 C.3     1  UNL1        0.1597
      3 O          61.7868   95.4701   -5.8591 O.3     1  UNL1       -0.3533
      4 C          62.6918   94.2887   -5.6717 C.3     1  UNL1        0.1315
      5 C          63.5044   93.4830   -6.6416 C.3     1  UNL1        0.0311
      6 C          64.2178   92.4120   -5.8709 C.3     1  UNL1        0.0041
      7 C          63.8462   92.5557   -4.4248 C.3     1  UNL1        0.0203
      8 C          62.9030   93.7156   -4.3017 C.3     1  UNL1        0.1066
      9 N          62.2093   94.3240   -3.1191 N.3     1  UNL1       -0.1534
     10 C          60.6105   96.1137   -2.1238 C.3     1  UNL1        0.0261
     11 C          60.4092   96.8556   -0.8357 C.3     1  UNL1        0.0020
     12 C          61.7874   96.7094   -1.4095 C.3     1  UNL1        0.0020
     13 C          59.1927   95.7293   -2.4273 C.3     1  UNL1        0.0867
     14 C          57.8968   93.6384   -0.6888 C.3     1  UNL1        0.0948
     15 C          57.7783   93.6451   -2.1841 C.2     1  UNL1        0.2261
     16 O          58.4519   94.7196   -2.9851 O.2     1  UNL1       -0.2749
     17 N          56.9861   92.5771   -2.8784 N.am    1  UNL1       -0.2794
     18 C          56.2612   91.4444   -2.2139 C.3     1  UNL1        0.0952
     19 C          55.6069   90.6217   -3.2840 C.3     1  UNL1        0.0233
     20 C          55.9274   91.2459   -4.6097 C.3     1  UNL1        0.0233
     21 C          56.7798   92.4544   -4.3591 C.3     1  UNL1        0.0952
     22 C          57.6085   93.5935   -3.8160 C.3     1  UNL1        0.1131
     23 N          57.7270   93.5868   -2.3207 N.am    1  UNL1       -0.2761
     24 C          58.5192   94.6548   -1.6264 C.2     1  UNL1        0.2258
     25 O          58.6377   94.6481   -0.1311 O.2     1  UNL1       -0.2749
     26 C          57.0534   92.5123   -1.5197 C.3     1  UNL1        0.1131
     27 S          62.4205   93.7509   -1.7491 S.O2    1  UNL1        0.0634
     28 O          63.7245   94.4846   -1.6432 O.2     1  UNL1       -0.1528
     29 O          61.2064   92.9003   -1.5203 O.2     1  UNL1       -0.1528
     30 C          62.6319   93.1778   -0.3790 C.ar    1  UNL1        0.1223
     31 C          63.9228   93.4215    0.3449 C.ar    1  UNL1        0.0208
     32 C          64.1342   92.8486    1.7149 C.ar    1  UNL1        0.0128
     33 C          63.0546   92.0319    2.3610 C.ar    1  UNL1        0.0578
     34 CL         62.9286   91.3277    3.6795 Cl      1  UNL1       -0.0822
     35 C          61.7637   91.7882    1.6371 C.ar    1  UNL1        0.0128
     36 C          61.5523   92.3611    0.2671 C.ar    1  UNL1        0.0208
@<TRIPOS>BOND
     1    14    15    1
     2    15    16    2
     3    15    17   am
     4    17    18    1
     5    18    19    1
     6    19    20    1
     7    20    21    1
     8    21    22    1
     9    22    23    1
    10    23    24   am
    11    24    25    2
    12    24    13    1
    13    13    10    1
    14     1    10    1
    15     1     2    1
    16     2     3    1
    17     3     4    1
    18     4     5    1
    19     5     6    1
    20     6     7    1
    21     8     7    1
    22     8     9    1
    23     9    27    1
    24    27    28    2
    25    27    29    2
    26    27    30    1
    27    30    31   ar
    28    31    32   ar
    29    32    33   ar
    30    33    34    1
    31    33    35   ar
    32    35    36   ar
    33    10    11    1
    34    11    12    1
    35    23    26    1
    36    21    17    1
    37    12    10    1
    38    26    18    1
    39     9     1    1
    40    36    30   ar
    41     8     4    1
@<TRIPOS>MOLECULE
*****
 36 41 0 0 0
SMALL
GASTEIGER

@<TRIPOS>ATOM
      1 C          63.0551   89.6992   14.2302 C.3     1  UNL1        0.1095
      2 C          61.8087   89.0584   13.6960 C.3     1  UNL1        0.1597
      3 O          61.3983   89.2883   12.2716 O.3     1  UNL1       -0.3533
      4 C          62.2346   90.1591   11.3815 C.3     1  UNL1        0.1315
      5 C          62.0833   90.5655    9.9455 C.3     1  UNL1        0.0311
      6 C          63.2364   91.4575    9.5923 C.3     1  UNL1        0.0041
      7 C          64.1003   91.6024   10.8100 C.3     1  UNL1        0.0203
      8 C          63.4812   90.8000   11.9158 C.3     1  UNL1        0.1066
      9 N          63.8914   90.5700   13.3401 N.3     1  UNL1       -0.1534
     10 C          63.4655   89.4693   15.6546 C.3     1  UNL1        0.0261
     11 C          63.6506   89.7070   17.1240 C.3     1  UNL1        0.0020
     12 C          62.9596   90.7359   16.2790 C.3     1  UNL1        0.0020
     13 C          64.1138   88.1229   15.5249 C.3     1  UNL1        0.0867
     14 C          62.7289   85.7698   16.7973 C.3     1  UNL1        0.0948
     15 C          63.3785   85.7028   15.4468 C.2     1  UNL1        0.2261
     16 O          64.0501   86.9166   14.8765 O.2     1  UNL1       -0.2749
     17 N          63.3563   84.4217   14.6668 N.am    1  UNL1       -0.2794
     18 C          62.7262   83.1330   15.1054 C.3     1  UNL1        0.0952
     19 C          62.9409   82.1194   14.0208 C.3     1  UNL1        0.0233
     20 C          63.7037   82.7815   12.9119 C.3     1  UNL1        0.0233
     21 C          63.9604   84.2044   13.3111 C.3     1  UNL1        0.0952
     22 C          64.0696   85.5609   13.9647 C.3     1  UNL1        0.1131
     23 N          63.4200   85.6280   15.3151 N.am    1  UNL1       -0.2761
     24 C          63.4422   86.9091   16.0952 C.2     1  UNL1        0.2258
     25 O          62.7926   86.9761   17.4456 O.2     1  UNL1       -0.2749
     26 C          62.7484   84.4141   15.8854 C.3     1  UNL1        0.1131
     27 S          65.1380   91.2109   13.8744 S.O2    1  UNL1        0.0634
     28 O          64.6410   92.5527   13.4243 O.2     1  UNL1       -0.1528
     29 O          65.9218   90.0641   14.4403 O.2     1  UNL1       -0.1528
     30 C          66.3845   91.8519   14.4086 C.ar    1  UNL1        0.1223
     31 C          67.6631   91.7706   13.6285 C.ar    1  UNL1        0.0208
     32 C          68.9097   92.4115   14.1627 C.ar    1  UNL1        0.0128
     33 C          68.8775   93.1337   15.4769 C.ar    1  UNL1        0.0578
     34 CL         69.9040   93.8678   16.2879 Cl      1  UNL1       -0.0822
     35 C          67.5990   93.2150   16.2571 C.ar    1  UNL1        0.0128
     36 C          66.3524   92.5740   15.7229 C.ar    1  UNL1        0.0208
@<TRIPOS>BOND
     1    14    15    1
     2    15    16    2
     3    15    17   am
     4    17    18    1
     5    18    19    1
     6    19    20    1
     7    20    21    1
     8    21    22    1
     9    22    23    1
    10    23    24   am
    11    24    25    2
    12    24    13    1
    13    13    10    1
    14     1    10    1
    15     1     2    1
    16     2     3    1
    17     3     4    1
    18     4     5    1
    19     5     6    1
    20     6     7    1
    21     8     7    1
    22     8     9    1
    23     9    27    1
    24    27    28    2
    25    27    29    2
    26    27    30    1
    27    30    31   ar
    28    31    32   ar
    29    32    33   ar
    30    33    34    1
    31    33    35   ar
    32    35    36   ar
    33    10    11    1
    34    11    12    1
    35    23    26    1
    36    21    17    1
    37    12    10    1
    38    26    18    1
    39     9     1    1
    40    36    30   ar
    41     8     4    1
@<TRIPOS>MOLECULE
*****
 36 41 0 0 0
SMALL
GASTEIGER

@<TRIPOS>ATOM
      1 C          61.2197   89.4122   11.1098 C.3     1  UNL1        0.1095
      2 C          60.5372   90.6033   10.5054 C.3     1  UNL1        0.1597
      3 O          59.8211   90.4720    9.1939 O.3     1  UNL1       -0.3533
      4 C          59.7877   89.1496    8.4868 C.3     1  UNL1        0.1315
      5 C          59.1652   88.7195    7.1916 C.3     1  UNL1        0.0311
      6 C          59.4630   87.2625    6.9955 C.3     1  UNL1        0.0041
      7 C          60.2696   86.7922    8.1695 C.3     1  UNL1        0.0203
      8 C          60.4703   87.9585    9.0912 C.3     1  UNL1        0.1066
      9 N          61.1863   88.0898   10.4026 N.3     1  UNL1       -0.1534
     10 C          61.9358   89.5435   12.4213 C.3     1  UNL1        0.0261
     11 C          62.1659   89.5949   13.9027 C.3     1  UNL1        0.0020
     12 C          60.7852   89.3594   13.3658 C.3     1  UNL1        0.0020
     13 C          63.3351   89.7731   11.9323 C.3     1  UNL1        0.0867
     14 C          65.2224   91.3647   13.6582 C.3     1  UNL1        0.0948
     15 C          64.8225   91.7913   12.2769 C.2     1  UNL1        0.2261
     16 O          63.8771   90.9466   11.4753 O.2     1  UNL1       -0.2749
     17 N          65.3681   93.0626   11.6972 N.am    1  UNL1       -0.2794
     18 C          66.3172   94.0052   12.3761 C.3     1  UNL1        0.0952
     19 C          66.5960   95.1396   11.4352 C.3     1  UNL1        0.0233
     20 C          65.8193   94.8983   10.1749 C.3     1  UNL1        0.0233
     21 C          65.0604   93.6146   10.3368 C.3     1  UNL1        0.0952
     22 C          64.4263   92.3157   10.7728 C.3     1  UNL1        0.1131
     23 N          64.8262   91.8892   12.1541 N.am    1  UNL1       -0.2761
     24 C          64.2805   90.6178   12.7339 C.2     1  UNL1        0.2258
     25 O          64.6804   90.1912   14.1152 O.2     1  UNL1       -0.2749
     26 C          65.7716   92.7338   12.9557 C.3     1  UNL1        0.1131
     27 S          61.8689   86.8986   11.0070 S.O2    1  UNL1        0.0634
     28 O          63.0226   87.0823   10.0661 O.2     1  UNL1       -0.1528
     29 O          60.9147   86.4322   12.0662 O.2     1  UNL1       -0.1528
     30 C          62.5516   85.7075   11.6114 C.ar    1  UNL1        0.1223
     31 C          63.2410   85.8312   12.9378 C.ar    1  UNL1        0.0208
     32 C          63.9237   84.6401   13.5422 C.ar    1  UNL1        0.0128
     33 C          63.9169   83.3254   12.8201 C.ar    1  UNL1        0.0578
     34 CL         64.4821   81.9687   13.1204 Cl      1  UNL1       -0.0822
     35 C          63.2275   83.2017   11.4937 C.ar    1  UNL1        0.0128
     36 C          62.5448   84.3928   10.8893 C.ar    1  UNL1        0.0208
@<TRIPOS>BOND
     1    14    15    1
     2    15    16    2
     3    15    17   am
     4    17    18    1
     5    18    19    1
     6    19    20    1
     7    20    21    1
     8    21    22    1
     9    22    23    1
    10    23    24   am
    11    24    25    2
    12    24    13    1
    13    13    10    1
    14     1    10    1
    15     1     2    1
    16     2     3    1
    17     3     4    1
    18     4     5    1
    19     5     6    1
    20     6     7    1
    21     8     7    1
    22     8     9    1
    23     9    27    1
    24    27    28    2
    25    27    29    2
    26    27    30    1
    27    30    31   ar
    28    31    32   ar
    29    32    33   ar
    30    33    34    1
    31    33    35   ar
    32    35    36   ar
    33    10    11    1
    34    11    12    1
    35    23    26    1
    36    21    17    1
    37    12    10    1
    38    26    18    1
    39     9     1    1
    40    36    30   ar
    41     8     4    1
@<TRIPOS>MOLECULE
*****
 36 41 0 0 0
SMALL
GASTEIGER

@<TRIPOS>ATOM
      1 C          60.0550   95.2218   -2.5935 C.3     1  UNL1        0.1095
      2 C          60.0764   95.7716   -3.9889 C.3     1  UNL1        0.1597
      3 O          61.1488   95.3447   -4.9469 O.3     1  UNL1       -0.3533
      4 C          62.1997   94.3680   -4.5095 C.3     1  UNL1        0.1315
      5 C          63.3722   93.7672   -5.2266 C.3     1  UNL1        0.0311
      6 C          64.0755   92.8459   -4.2744 C.3     1  UNL1        0.0041
      7 C          63.3376   92.8774   -2.9688 C.3     1  UNL1        0.0203
      8 C          62.1783   93.8181   -3.1141 C.3     1  UNL1        0.1066
      9 N          61.1059   94.2450   -2.1561 N.3     1  UNL1       -0.1534
     10 C          58.9826   95.6487   -1.6354 C.3     1  UNL1        0.0261
     11 C          58.2671   96.4434   -0.5836 C.3     1  UNL1        0.0020
     12 C          59.6375   96.8560   -1.0326 C.3     1  UNL1        0.0020
     13 C          57.9553   94.5896   -1.9056 C.3     1  UNL1        0.0867
     14 C          55.7577   95.1903   -3.8764 C.3     1  UNL1        0.0948
     15 C          56.7081   94.0411   -4.0381 C.2     1  UNL1        0.2261
     16 O          57.7789   93.8036   -3.0150 O.2     1  UNL1       -0.2749
     17 N          56.5877   93.1294   -5.2232 N.am    1  UNL1       -0.2794
     18 C          55.5728   93.2412   -6.3222 C.3     1  UNL1        0.0952
     19 C          55.8190   92.1267   -7.2954 C.3     1  UNL1        0.0233
     20 C          56.9859   91.3262   -6.7982 C.3     1  UNL1        0.0233
     21 C          57.4610   91.9458   -5.5174 C.3     1  UNL1        0.0952
     22 C          57.7145   92.7662   -4.2757 C.3     1  UNL1        0.1131
     23 N          56.7641   93.9154   -4.1139 N.am    1  UNL1       -0.2761
     24 C          56.8845   94.8271   -2.9288 C.2     1  UNL1        0.2258
     25 O          55.9341   95.9763   -2.7670 O.2     1  UNL1       -0.2749
     26 C          55.6933   94.1529   -5.1371 C.3     1  UNL1        0.1131
     27 S          61.0845   93.6951   -0.7607 S.O2    1  UNL1        0.0634
     28 O          62.0191   94.7817   -0.3182 O.2     1  UNL1       -0.1528
     29 O          60.1726   92.5078   -0.8524 O.2     1  UNL1       -0.1528
     30 C          61.0632   93.1453    0.6348 C.ar    1  UNL1        0.1223
     31 C          62.2946   92.5104    1.2096 C.ar    1  UNL1        0.0208
     32 C          62.2734   91.9606    2.6050 C.ar    1  UNL1        0.0128
     33 C          61.0206   92.0456    3.4256 C.ar    1  UNL1        0.0578
     34 CL         60.6529   91.6127    4.8140 Cl      1  UNL1       -0.0822
     35 C          59.7892   92.6805    2.8508 C.ar    1  UNL1        0.0128
     36 C          59.8104   93.2304    1.4553 C.ar    1  UNL1        0.0208
@<TRIPOS>BOND
     1    14    15    1
     2    15    16    2
     3    15    17   am
     4    17    18    1
     5    18    19    1
     6    19    20    1
     7    20    21    1
     8    21    22    1
     9    22    23    1
    10    23    24   am
    11    24    25    2
    12    24    13    1
    13    13    10    1
    14     1    10    1
    15     1     2    1
    16     2     3    1
    17     3     4    1
    18     4     5    1
    19     5     6    1
    20     6     7    1
    21     8     7    1
    22     8     9    1
    23     9    27    1
    24    27    28    2
    25    27    29    2
    26    27    30    1
    27    30    31   ar
    28    31    32   ar
    29    32    33   ar
    30    33    34    1
    31    33    35   ar
    32    35    36   ar
    33    10    11    1
    34    11    12    1
    35    23    26    1
    36    21    17    1
    37    12    10    1
    38    26    18    1
    39     9     1    1
    40    36    30   ar
    41     8     4    1
