@<TRIPOS>MOLECULE
*****
 33 38 0 0 0
SMALL
GASTEIGER

@<TRIPOS>ATOM
      1 C          63.0355   83.7407   12.2542 C.3     1  UNL1        0.0279
      2 C          62.3167   84.3926   11.1102 C.3     1  UNL1        0.0089
      3 C          62.4031   85.8787   11.2949 C.3     1  UNL1        0.0227
      4 C          61.6520   85.4592   10.0662 C.3     1  UNL1        0.0257
      5 C          61.0686   86.4965    9.1531 C.3     1  UNL1        0.0953
      6 N          61.2365   87.9533    9.4688 N.am    1  UNL1       -0.2642
      7 C          60.6531   88.9906    8.5557 C.2     1  UNL1        0.3039
      8 O          60.8209   90.4474    8.8714 O.2     1  UNL1       -0.2526
      9 N          59.9020   88.5712    7.3270 N.am    1  UNL1       -0.2904
     10 C          61.9876   88.3728   10.6975 C.3     1  UNL1        0.0953
     11 C          62.5709   87.3354   11.6106 C.3     1  UNL1        0.0257
     12 C          63.1753   86.1453   12.5530 C.ar    1  UNL1       -0.0204
     13 C          63.5730   87.4205   13.2354 C.ar    1  UNL1        0.0303
     14 BR         63.1821   88.7418   12.6425 Br      1  UNL1       -0.0493
     15 C          64.3615   87.3745   14.5105 C.ar    1  UNL1        0.0064
     16 C          64.7523   86.0532   15.1034 C.ar    1  UNL1        0.0002
     17 C          64.3546   84.7780   14.4210 C.ar    1  UNL1       -0.0045
     18 C          63.5661   84.8240   13.1459 C.ar    1  UNL1       -0.0256
     19 H          59.7918   87.6150    7.1198 H       1  UNL1        0.1509
     20 C          59.3186   89.6085    6.4139 C.3     1  UNL1        0.0729
     21 C          60.2180   90.4215    5.5308 C.3     1  UNL1        0.0180
     22 C          58.7352   90.6458    5.5008 C.3     1  UNL1        0.0016
     23 C          58.1518   91.6830    4.5878 C.3     1  UNL1        0.0001
     24 C          59.0513   92.4961    3.7046 C.3     1  UNL1        0.0000
     25 C          60.5341   92.2719    3.7346 C.3     1  UNL1        0.0001
     26 C          61.1175   91.2345    4.6477 C.3     1  UNL1        0.0016
     27 C          59.2111   90.1727    5.8914 C.3     1  UNL1        0.0016
     28 C          57.8357   89.8327    6.3839 C.3     1  UNL1        0.0180
     29 C          57.2524   90.8700    5.4709 C.3     1  UNL1        0.0016
     30 C          63.1956   82.2648   12.4687 C.3     1  UNL1        0.0460
     31 O          63.3361   80.3501   14.2192 O.co2   1  UNL1       -0.5492
     32 C          62.7278   81.6380   13.7487 C.2     1  UNL1        0.0507
     33 O          61.6517   82.2989   14.5580 O.co2   1  UNL1       -0.5492
@<TRIPOS>UNITY_ATOM_ATTR
31 1
charge -1
@<TRIPOS>BOND
     1    31    32   ar
     2    32    33   ar
     3    32    30    1
     4    30     1    1
     5     1     2    1
     6     2     3    1
     7     3     4    1
     8     4     5    1
     9     5     6    1
    10     6     7   am
    11     7     8    2
    12     7     9   am
    13     9    20    1
    14    20    21    1
    15    21    22    1
    16    22    23    1
    17    23    24    1
    18    24    25    1
    19    25    26    1
    20    25    27    1
    21    27    28    1
    22    28    29    1
    23     6    10    1
    24    10    11    1
    25     3    12    1
    26    12    13   ar
    27    13    14    1
    28    13    15   ar
    29    15    16   ar
    30    16    17   ar
    31    17    18   ar
    32    18     1    1
    33    11     3    1
    34    18    12   ar
    35    28    20    1
    36    26    21    1
    37    29    23    1
    38     9    19    1
@<TRIPOS>MOLECULE
*****
 33 38 0 0 0
SMALL
GASTEIGER

@<TRIPOS>ATOM
      1 C          63.3609   96.0004    0.1831 C.3     1  UNL1        0.0279
      2 C          62.0326   96.3746   -0.4051 C.3     1  UNL1        0.0089
      3 C          61.0805   95.2422   -0.1575 C.3     1  UNL1        0.0227
      4 C          60.4746   96.3983   -0.8966 C.3     1  UNL1        0.0257
      5 C          59.0354   96.3486   -1.3164 C.3     1  UNL1        0.0953
      6 N          58.2022   95.1429   -0.9971 N.am    1  UNL1       -0.2642
      7 C          56.7629   95.0933   -1.4169 C.2     1  UNL1        0.3039
      8 O          55.9297   93.8876   -1.0976 O.2     1  UNL1       -0.2526
      9 N          56.1570   96.2493   -2.1561 N.am    1  UNL1       -0.2904
     10 C          58.8081   93.9869   -0.2579 C.3     1  UNL1        0.0953
     11 C          60.2472   94.0365    0.1619 C.3     1  UNL1        0.0257
     12 C          61.8203   94.1682    0.5838 C.ar    1  UNL1       -0.0204
     13 C          61.3927   92.8242    1.0942 C.ar    1  UNL1        0.0303
     14 BR         59.9834   92.3556    0.8838 Br      1  UNL1       -0.0493
     15 C          62.3744   91.9486    1.8152 C.ar    1  UNL1        0.0064
     16 C          63.7837   92.4173    2.0256 C.ar    1  UNL1        0.0002
     17 C          64.2113   93.7613    1.5151 C.ar    1  UNL1       -0.0045
     18 C          63.2296   94.6368    0.7942 C.ar    1  UNL1       -0.0256
     19 H          56.7039   97.0406   -2.3657 H       1  UNL1        0.1509
     20 C          54.7178   96.1997   -2.5760 C.3     1  UNL1        0.0729
     21 C          54.3580   96.2685   -4.0305 C.3     1  UNL1        0.0180
     22 C          53.2786   96.1501   -2.9957 C.3     1  UNL1        0.0016
     23 C          51.8394   96.1004   -3.4155 C.3     1  UNL1        0.0001
     24 C          51.4796   96.1692   -4.8702 C.3     1  UNL1        0.0000
     25 C          52.5591   96.2877   -5.9049 C.3     1  UNL1        0.0001
     26 C          53.9983   96.3373   -5.4851 C.3     1  UNL1        0.0016
     27 C          54.0538   96.1894   -2.9784 C.3     1  UNL1        0.0016
     28 C          53.6383   96.0812   -1.5412 C.3     1  UNL1        0.0180
     29 C          52.1991   96.0316   -1.9610 C.3     1  UNL1        0.0016
     30 C          64.6023   96.8421    0.1635 C.3     1  UNL1        0.0460
     31 O          65.1818   96.2576   -2.3008 O.co2   1  UNL1       -0.5492
     32 C          65.6204   96.6518   -0.9216 C.2     1  UNL1        0.0507
     33 O          67.0770   96.8557   -0.6274 O.co2   1  UNL1       -0.5492
@<TRIPOS>UNITY_ATOM_ATTR
31 1
charge -1
@<TRIPOS>BOND
     1    31    32   ar
     2    32    33   ar
     3    32    30    1
     4    30     1    1
     5     1     2    1
     6     2     3    1
     7     3     4    1
     8     4     5    1
     9     5     6    1
    10     6     7   am
    11     7     8    2
    12     7     9   am
    13     9    20    1
    14    20    21    1
    15    21    22    1
    16    22    23    1
    17    23    24    1
    18    24    25    1
    19    25    26    1
    20    25    27    1
    21    27    28    1
    22    28    29    1
    23     6    10    1
    24    10    11    1
    25     3    12    1
    26    12    13   ar
    27    13    14    1
    28    13    15   ar
    29    15    16   ar
    30    16    17   ar
    31    17    18   ar
    32    18     1    1
    33    11     3    1
    34    18    12   ar
    35    28    20    1
    36    26    21    1
    37    29    23    1
    38     9    19    1
@<TRIPOS>MOLECULE
*****
 33 38 0 0 0
SMALL
GASTEIGER

@<TRIPOS>ATOM
      1 C          61.1741   92.4912    2.5015 C.3     1  UNL1        0.0279
      2 C          60.0069   92.7357    1.5915 C.3     1  UNL1        0.0089
      3 C          60.5339   93.2852    0.2991 C.3     1  UNL1        0.0227
      4 C          59.0421   93.1333    0.3343 C.3     1  UNL1        0.0257
      5 C          58.2205   93.5198   -0.8597 C.3     1  UNL1        0.0953
      6 N          58.8908   94.0580   -2.0889 N.am    1  UNL1       -0.2642
      7 C          58.0692   94.4445   -3.2830 C.2     1  UNL1        0.3039
      8 O          58.7395   94.9827   -4.5122 O.2     1  UNL1       -0.2526
      9 N          56.5773   94.2927   -3.2477 N.am    1  UNL1       -0.2904
     10 C          60.3827   94.2098   -2.1242 C.3     1  UNL1        0.0953
     11 C          61.2042   93.8234   -0.9302 C.3     1  UNL1        0.0257
     12 C          62.0268   93.3803    0.4103 C.ar    1  UNL1       -0.0204
     13 C          63.0771   93.8504   -0.5520 C.ar    1  UNL1        0.0303
     14 BR         62.6814   94.3410   -1.9132 Br      1  UNL1       -0.0493
     15 C          64.5229   93.8298   -0.1532 C.ar    1  UNL1        0.0064
     16 C          64.9185   93.3391    1.2080 C.ar    1  UNL1        0.0002
     17 C          63.8683   92.8691    2.1703 C.ar    1  UNL1       -0.0045
     18 C          62.4225   92.8897    1.7715 C.ar    1  UNL1       -0.0256
     19 H          56.1374   93.9394   -2.4409 H       1  UNL1        0.1509
     20 C          55.7557   94.6791   -4.4418 C.3     1  UNL1        0.0729
     21 C          54.5627   95.5728   -4.2738 C.3     1  UNL1        0.0180
     22 C          54.9341   95.0655   -5.6357 C.3     1  UNL1        0.0016
     23 C          54.1125   95.4519   -6.8297 C.3     1  UNL1        0.0001
     24 C          52.9195   96.3456   -6.6619 C.3     1  UNL1        0.0000
     25 C          52.5482   96.8529   -5.3000 C.3     1  UNL1        0.0001
     26 C          53.3698   96.4664   -4.1059 C.3     1  UNL1        0.0016
     27 C          55.2239   94.9807   -4.9205 C.3     1  UNL1        0.0016
     28 C          56.1270   94.1719   -5.8037 C.3     1  UNL1        0.0180
     29 C          55.3055   94.5583   -6.9977 C.3     1  UNL1        0.0016
     30 C          61.1050   91.9444    3.8966 C.3     1  UNL1        0.0460
     31 O          58.9953   93.1459    4.8215 O.co2   1  UNL1       -0.5492
     32 C          59.7903   91.8905    4.6167 C.2     1  UNL1        0.0507
     33 O          59.2707   90.5812    5.1321 O.co2   1  UNL1       -0.5492
@<TRIPOS>UNITY_ATOM_ATTR
31 1
charge -1
@<TRIPOS>BOND
     1    31    32   ar
     2    32    33   ar
     3    32    30    1
     4    30     1    1
     5     1     2    1
     6     2     3    1
     7     3     4    1
     8     4     5    1
     9     5     6    1
    10     6     7   am
    11     7     8    2
    12     7     9   am
    13     9    20    1
    14    20    21    1
    15    21    22    1
    16    22    23    1
    17    23    24    1
    18    24    25    1
    19    25    26    1
    20    25    27    1
    21    27    28    1
    22    28    29    1
    23     6    10    1
    24    10    11    1
    25     3    12    1
    26    12    13   ar
    27    13    14    1
    28    13    15   ar
    29    15    16   ar
    30    16    17   ar
    31    17    18   ar
    32    18     1    1
    33    11     3    1
    34    18    12   ar
    35    28    20    1
    36    26    21    1
    37    29    23    1
    38     9    19    1
