@<TRIPOS>MOLECULE
*****
 36 39 0 0 0
SMALL
GASTEIGER

@<TRIPOS>ATOM
      1 C          63.9971   86.3198   15.3499 C.ar    1  UNL1       -0.0024
      2 C          63.2552   86.1618   16.6439 C.ar    1  UNL1       -0.0026
      3 C          62.8392   87.3743   17.4228 C.ar    1  UNL1       -0.0001
      4 C          63.1651   88.7449   16.9077 C.ar    1  UNL1        0.0045
      5 C          63.9070   88.9029   15.6136 C.ar    1  UNL1        0.0534
      6 C          64.3230   87.6903   14.8347 C.ar    1  UNL1        0.0019
      7 C          64.2330   90.2734   15.0984 C.2     1  UNL1        0.2495
      8 O          63.5080   91.4700   15.6393 O.2     1  UNL1       -0.2698
      9 N          65.2839   90.4473   14.0424 N.am    1  UNL1       -0.2804
     10 H          65.7597   89.6619   13.6874 H       1  UNL1        0.1552
     11 C          65.6099   91.8178   13.5271 C.ar    1  UNL1        0.0502
     12 C          66.2199   92.8377   14.4425 C.ar    1  UNL1        0.0143
     13 C          66.5459   94.2082   13.9273 C.ar    1  UNL1       -0.0032
     14 C          66.2619   94.5589   12.4967 C.ar    1  UNL1       -0.0234
     15 C          65.6519   93.5390   11.5814 C.ar    1  UNL1       -0.0091
     16 C          65.3259   92.1685   12.0966 C.ar    1  UNL1        0.0114
     17 C          65.3679   93.8896   10.1509 C.3     1  UNL1        0.0954
     18 N          65.6938   95.2601    9.6358 N.3     1  UNL1       -0.2935
     19 C          66.3038   96.2800   10.5511 C.3     1  UNL1        0.0735
     20 C          66.5878   95.9294   11.9816 C.3     1  UNL1        0.0432
     21 H          64.8216   95.6597    9.2894 H       1  UNL1        0.1236
     22 C          64.4130   85.1072   14.5710 C.3     1  UNL1        0.1177
     23 N          62.0102   84.9365   11.4170 N.am    1  UNL1       -0.2683
     24 C          62.9066   85.4838   12.4880 C.2     1  UNL1        0.3047
     25 O          63.1928   86.9551   12.5469 O.2     1  UNL1       -0.2525
     26 N          63.5167   84.5599   13.5000 N.am    1  UNL1       -0.2846
     27 H          61.8223   83.9708   11.3783 H       1  UNL1        0.1564
     28 H          63.3288   83.5943   13.4613 H       1  UNL1        0.1513
     29 C          60.1799   87.7081    8.3809 C.ar    1  UNL1        0.0685
     30 C          60.8986   86.4712    7.9300 C.ar    1  UNL1        0.0115
     31 C          61.5088   85.5472    8.9421 C.ar    1  UNL1        0.0154
     32 C          61.4001   85.8603   10.4050 C.ar    1  UNL1        0.0516
     33 C          60.6813   87.0973   10.8559 C.ar    1  UNL1        0.0154
     34 C          60.0713   88.0212    9.8439 C.ar    1  UNL1        0.0115
     35 N          58.9596   89.5559    6.3569 N.1     1  UNL1       -0.1908
     36 C          59.5698   88.6320    7.3689 C.1     1  UNL1        0.1004
@<TRIPOS>BOND
     1    35    36    3
     2    36    29    1
     3    29    30   ar
     4    30    31   ar
     5    31    32   ar
     6    32    23    1
     7    23    24   am
     8    24    25    2
     9    24    26   am
    10    26    22    1
    11    22     1    1
    12     1     2   ar
    13     2     3   ar
    14     3     4   ar
    15     4     5   ar
    16     5     7    1
    17     7     8    2
    18     7     9   am
    19     9    11    1
    20    11    12   ar
    21    12    13   ar
    22    13    14   ar
    23    14    15   ar
    24    15    16   ar
    25    15    17    1
    26    17    18    1
    27    18    19    1
    28    19    20    1
    29     5     6   ar
    30    32    33   ar
    31    33    34   ar
    32    34    29   ar
    33     6     1   ar
    34    16    11   ar
    35    20    14    1
    36    23    27    1
    37    26    28    1
    38     9    10    1
    39    18    21    1
@<TRIPOS>MOLECULE
*****
 36 39 0 0 0
SMALL
GASTEIGER

@<TRIPOS>ATOM
      1 C          59.5413   89.0773    7.4379 C.ar    1  UNL1       -0.0024
      2 C          59.0200   87.6734    7.3513 C.ar    1  UNL1       -0.0026
      3 C          59.4683   86.6442    8.3461 C.ar    1  UNL1       -0.0001
      4 C          60.4379   87.0188    9.4276 C.ar    1  UNL1        0.0045
      5 C          60.9592   88.4226    9.5143 C.ar    1  UNL1        0.0534
      6 C          60.5109   89.4519    8.5194 C.ar    1  UNL1        0.0019
      7 C          61.9287   88.7972   10.5957 C.2     1  UNL1        0.2495
      8 O          62.5620   87.7298   11.4380 O.2     1  UNL1       -0.2698
      9 N          62.2650   90.2393   10.8349 N.am    1  UNL1       -0.2804
     10 H          61.8494   90.9399   10.2820 H       1  UNL1        0.1552
     11 C          63.2346   90.6140   11.9164 C.ar    1  UNL1        0.0502
     12 C          63.1669   89.9354   13.2524 C.ar    1  UNL1        0.0143
     13 C          64.1364   90.3100   14.3339 C.ar    1  UNL1       -0.0032
     14 C          65.1737   91.3633   14.0794 C.ar    1  UNL1       -0.0234
     15 C          65.2415   92.0419   12.7433 C.ar    1  UNL1       -0.0091
     16 C          64.2719   91.6672   11.6618 C.ar    1  UNL1        0.0114
     17 C          66.2787   93.0951   12.4888 C.3     1  UNL1        0.0954
     18 N          67.2482   93.4697   13.5703 N.3     1  UNL1       -0.2935
     19 C          67.1805   92.7911   14.9063 C.3     1  UNL1        0.0735
     20 C          66.1433   91.7379   15.1608 C.3     1  UNL1        0.0432
     21 H          67.1278   94.4682   13.7407 H       1  UNL1        0.1236
     22 C          59.0931   90.1065    6.4431 C.3     1  UNL1        0.1177
     23 N          60.6419   92.3552    3.5630 N.am    1  UNL1       -0.2683
     24 C          59.6369   91.6809    4.4492 C.2     1  UNL1        0.3047
     25 O          58.1706   91.9068    4.2276 O.2     1  UNL1       -0.2525
     26 N          60.0981   90.7808    5.5569 N.am    1  UNL1       -0.2846
     27 H          61.6042   92.2069    3.7084 H       1  UNL1        0.1564
     28 H          61.0605   90.6325    5.7023 H       1  UNL1        0.1513
     29 C          59.2583   95.0555    0.2398 C.ar    1  UNL1        0.0685
     30 C          59.9547   95.6342    1.4357 C.ar    1  UNL1        0.0115
     31 C          60.4159   94.7341    2.5435 C.ar    1  UNL1        0.0154
     32 C          60.1807   93.2553    2.4553 C.ar    1  UNL1        0.0516
     33 C          59.4843   92.6766    1.2594 C.ar    1  UNL1        0.0154
     34 C          59.0231   93.5767    0.1517 C.ar    1  UNL1        0.0115
     35 N          58.3359   96.8559   -1.9756 N.1     1  UNL1       -0.1908
     36 C          58.7971   95.9557   -0.8679 C.1     1  UNL1        0.1004
@<TRIPOS>BOND
     1    35    36    3
     2    36    29    1
     3    29    30   ar
     4    30    31   ar
     5    31    32   ar
     6    32    23    1
     7    23    24   am
     8    24    25    2
     9    24    26   am
    10    26    22    1
    11    22     1    1
    12     1     2   ar
    13     2     3   ar
    14     3     4   ar
    15     4     5   ar
    16     5     7    1
    17     7     8    2
    18     7     9   am
    19     9    11    1
    20    11    12   ar
    21    12    13   ar
    22    13    14   ar
    23    14    15   ar
    24    15    16   ar
    25    15    17    1
    26    17    18    1
    27    18    19    1
    28    19    20    1
    29     5     6   ar
    30    32    33   ar
    31    33    34   ar
    32    34    29   ar
    33     6     1   ar
    34    16    11   ar
    35    20    14    1
    36    23    27    1
    37    26    28    1
    38     9    10    1
    39    18    21    1
@<TRIPOS>MOLECULE
*****
 36 39 0 0 0
SMALL
GASTEIGER

@<TRIPOS>ATOM
      1 C          63.6220   88.8496   15.8542 C.ar    1  UNL1       -0.0024
      2 C          63.2061   88.6060   17.2746 C.ar    1  UNL1       -0.0026
      3 C          62.9664   87.2059   17.7563 C.ar    1  UNL1       -0.0001
      4 C          63.1426   86.0492   16.8175 C.ar    1  UNL1        0.0045
      5 C          63.5585   86.2929   15.3971 C.ar    1  UNL1        0.0534
      6 C          63.7982   87.6931   14.9154 C.ar    1  UNL1        0.0019
      7 C          63.7347   85.1363   14.4583 C.2     1  UNL1        0.2495
      8 O          65.0159   84.3562   14.4615 O.2     1  UNL1       -0.2698
      9 N          62.6297   84.7599   13.5164 N.am    1  UNL1       -0.2804
     10 H          61.7888   85.2719   13.5143 H       1  UNL1        0.1552
     11 C          62.8059   83.6033   12.5775 C.ar    1  UNL1        0.0502
     12 C          63.2938   83.8402   11.1790 C.ar    1  UNL1        0.0143
     13 C          63.4700   82.6837   10.2402 C.ar    1  UNL1       -0.0032
     14 C          63.1582   81.2902   10.6999 C.ar    1  UNL1       -0.0234
     15 C          62.6702   81.0534   12.0984 C.ar    1  UNL1       -0.0091
     16 C          62.4940   82.2100   13.0372 C.ar    1  UNL1        0.0114
     17 C          62.3584   79.6601   12.5580 C.3     1  UNL1        0.0954
     18 N          62.5345   78.5036   11.6192 N.3     1  UNL1       -0.2935
     19 C          63.0225   78.7404   10.2207 C.3     1  UNL1        0.0735
     20 C          63.3343   80.1337    9.7610 C.3     1  UNL1        0.0432
     21 H          61.6258   78.0470   11.5406 H       1  UNL1        0.1236
     22 C          63.8618   90.2498   15.3725 C.3     1  UNL1        0.1177
     23 N          66.6646   92.0011   13.1754 N.am    1  UNL1       -0.2683
     24 C          65.3164   91.6104   13.7043 C.2     1  UNL1        0.3047
     25 O          64.0747   92.1895   13.0938 O.2     1  UNL1       -0.2525
     26 N          65.2100   90.6405   14.8437 N.am    1  UNL1       -0.2846
     27 H          67.4796   91.6210   13.5761 H       1  UNL1        0.1564
     28 H          66.0250   90.2604   15.2443 H       1  UNL1        0.1513
     29 C          66.9840   94.9106    9.7575 C.ar    1  UNL1        0.0685
     30 C          67.4212   93.4875    9.5743 C.ar    1  UNL1        0.0115
     31 C          67.3148   92.5176   10.7136 C.ar    1  UNL1        0.0154
     32 C          66.7711   92.9709   12.0361 C.ar    1  UNL1        0.0516
     33 C          66.3339   94.3941   12.2193 C.ar    1  UNL1        0.0154
     34 C          66.4404   95.3639   11.0799 C.ar    1  UNL1        0.0115
     35 N          67.1970   96.8503    7.4787 N.1     1  UNL1       -0.1908
     36 C          67.0905   95.8804    8.6181 C.1     1  UNL1        0.1004
@<TRIPOS>BOND
     1    35    36    3
     2    36    29    1
     3    29    30   ar
     4    30    31   ar
     5    31    32   ar
     6    32    23    1
     7    23    24   am
     8    24    25    2
     9    24    26   am
    10    26    22    1
    11    22     1    1
    12     1     2   ar
    13     2     3   ar
    14     3     4   ar
    15     4     5   ar
    16     5     7    1
    17     7     8    2
    18     7     9   am
    19     9    11    1
    20    11    12   ar
    21    12    13   ar
    22    13    14   ar
    23    14    15   ar
    24    15    16   ar
    25    15    17    1
    26    17    18    1
    27    18    19    1
    28    19    20    1
    29     5     6   ar
    30    32    33   ar
    31    33    34   ar
    32    34    29   ar
    33     6     1   ar
    34    16    11   ar
    35    20    14    1
    36    23    27    1
    37    26    28    1
    38     9    10    1
    39    18    21    1
@<TRIPOS>MOLECULE
*****
 36 39 0 0 0
SMALL
GASTEIGER

@<TRIPOS>ATOM
      1 C          59.6277   91.6996    4.3920 C.ar    1  UNL1       -0.0024
      2 C          61.1169   91.5485    4.4892 C.ar    1  UNL1       -0.0026
      3 C          61.9912   91.9901    3.3533 C.ar    1  UNL1       -0.0001
      4 C          61.3764   92.5828    2.1200 C.ar    1  UNL1        0.0045
      5 C          59.8872   92.7339    2.0229 C.ar    1  UNL1        0.0534
      6 C          59.0128   92.2922    3.1589 C.ar    1  UNL1        0.0019
      7 C          59.2723   93.3265    0.7897 C.2     1  UNL1        0.2495
      8 O          59.4449   94.7868    0.4932 O.2     1  UNL1       -0.2698
      9 N          58.4850   92.4589   -0.1469 N.am    1  UNL1       -0.2804
     10 H          58.3717   91.5005    0.0478 H       1  UNL1        0.1552
     11 C          57.8700   93.0516   -1.3801 C.ar    1  UNL1        0.0502
     12 C          58.5183   92.8418   -2.7164 C.ar    1  UNL1        0.0143
     13 C          57.9035   93.4344   -3.9496 C.ar    1  UNL1       -0.0032
     14 C          56.6403   94.2369   -3.8465 C.ar    1  UNL1       -0.0234
     15 C          55.9921   94.4467   -2.5102 C.ar    1  UNL1       -0.0091
     16 C          56.6070   93.8540   -1.2769 C.ar    1  UNL1        0.0114
     17 C          54.7290   95.2491   -2.4070 C.3     1  UNL1        0.0954
     18 N          54.1142   95.8417   -3.6402 N.3     1  UNL1       -0.2935
     19 C          54.7624   95.6319   -4.9765 C.3     1  UNL1        0.0735
     20 C          56.0255   94.8295   -5.0796 C.3     1  UNL1        0.0432
     21 H          54.0673   96.8496   -3.4906 H       1  UNL1        0.1236
     22 C          58.7533   91.2580    5.5280 C.3     1  UNL1        0.1177
     23 N          59.3110   87.7578    7.3135 N.am    1  UNL1       -0.2683
     24 C          59.4327   89.2160    6.9837 C.2     1  UNL1        0.3047
     25 O          60.3555   90.0905    7.7797 O.2     1  UNL1       -0.2525
     26 N          58.6316   89.7997    5.8578 N.am    1  UNL1       -0.2846
     27 H          58.7054   87.1838    6.7910 H       1  UNL1        0.1564
     28 H          58.0260   89.2258    5.3353 H       1  UNL1        0.1513
     29 C          61.7143   86.0066   10.6910 C.ar    1  UNL1        0.0685
     30 C          60.7008   87.0771   10.9680 C.ar    1  UNL1        0.0115
     31 C          59.8996   87.6609    9.8421 C.ar    1  UNL1        0.0154
     32 C          60.1121   87.1741    8.4393 C.ar    1  UNL1        0.0516
     33 C          61.1257   86.1035    8.1623 C.ar    1  UNL1        0.0154
     34 C          61.9267   85.5198    9.2882 C.ar    1  UNL1        0.0115
     35 N          63.3165   84.8392   12.9427 N.1     1  UNL1       -0.1908
     36 C          62.5153   85.4229   11.8168 C.1     1  UNL1        0.1004
@<TRIPOS>BOND
     1    35    36    3
     2    36    29    1
     3    29    30   ar
     4    30    31   ar
     5    31    32   ar
     6    32    23    1
     7    23    24   am
     8    24    25    2
     9    24    26   am
    10    26    22    1
    11    22     1    1
    12     1     2   ar
    13     2     3   ar
    14     3     4   ar
    15     4     5   ar
    16     5     7    1
    17     7     8    2
    18     7     9   am
    19     9    11    1
    20    11    12   ar
    21    12    13   ar
    22    13    14   ar
    23    14    15   ar
    24    15    16   ar
    25    15    17    1
    26    17    18    1
    27    18    19    1
    28    19    20    1
    29     5     6   ar
    30    32    33   ar
    31    33    34   ar
    32    34    29   ar
    33     6     1   ar
    34    16    11   ar
    35    20    14    1
    36    23    27    1
    37    26    28    1
    38     9    10    1
    39    18    21    1
@<TRIPOS>MOLECULE
*****
 36 39 0 0 0
SMALL
GASTEIGER

@<TRIPOS>ATOM
      1 C          60.1411   88.3878    9.5384 C.ar    1  UNL1       -0.0024
      2 C          59.5628   87.0244    9.3004 C.ar    1  UNL1       -0.0026
      3 C          59.0041   86.6713    7.9539 C.ar    1  UNL1       -0.0001
      4 C          59.0239   87.6816    6.8453 C.ar    1  UNL1        0.0045
      5 C          59.6022   89.0450    7.0832 C.ar    1  UNL1        0.0534
      6 C          60.1608   89.3981    8.4299 C.ar    1  UNL1        0.0019
      7 C          59.6219   90.0552    5.9747 C.2     1  UNL1        0.2495
      8 O          58.3336   90.6044    5.4374 O.2     1  UNL1       -0.2698
      9 N          60.9300   90.5164    5.4035 N.am    1  UNL1       -0.2804
     10 H          61.7755   90.1559    5.7562 H       1  UNL1        0.1552
     11 C          60.9498   91.5267    4.2949 C.ar    1  UNL1        0.0502
     12 C          59.7363   92.3655    4.0229 C.ar    1  UNL1        0.0143
     13 C          59.7561   93.3758    2.9144 C.ar    1  UNL1       -0.0032
     14 C          60.9893   93.5473    2.0777 C.ar    1  UNL1       -0.0234
     15 C          62.2027   92.7084    2.3497 C.ar    1  UNL1       -0.0091
     16 C          62.1829   91.6981    3.4583 C.ar    1  UNL1        0.0114
     17 C          63.4359   92.8799    1.5131 C.3     1  UNL1        0.0954
     18 N          63.4556   93.8902    0.4046 N.3     1  UNL1       -0.2935
     19 C          62.2422   94.7290    0.1326 C.3     1  UNL1        0.0735
     20 C          61.0090   94.5576    0.9692 C.3     1  UNL1        0.0432
     21 H          63.6597   93.3802   -0.4549 H       1  UNL1        0.1236
     22 C          60.6997   88.7409   10.8849 C.3     1  UNL1        0.1177
     23 N          63.1337   91.5980   12.1746 N.am    1  UNL1       -0.2683
     24 C          62.5395   90.2405   11.9416 C.2     1  UNL1        0.3047
     25 O          63.1909   89.0253   12.5322 O.2     1  UNL1       -0.2525
     26 N          61.2939   90.0984   11.1179 N.am    1  UNL1       -0.2846
     27 H          62.7062   92.3956   11.7869 H       1  UNL1        0.1564
     28 H          60.8664   90.8960   10.7303 H       1  UNL1        0.1513
     29 C          66.8704   92.0246   14.6455 C.ar    1  UNL1        0.0685
     30 C          66.8542   92.4982   13.2223 C.ar    1  UNL1        0.0115
     31 C          65.6086   92.3560   12.3986 C.ar    1  UNL1        0.0154
     32 C          64.3793   91.7402   12.9982 C.ar    1  UNL1        0.0516
     33 C          64.3955   91.2666   14.4214 C.ar    1  UNL1        0.0154
     34 C          65.6410   91.4088   15.2450 C.ar    1  UNL1        0.0115
     35 N          69.3615   92.3090   16.2928 N.1     1  UNL1       -0.1908
     36 C          68.1159   92.1668   15.4691 C.1     1  UNL1        0.1004
@<TRIPOS>BOND
     1    35    36    3
     2    36    29    1
     3    29    30   ar
     4    30    31   ar
     5    31    32   ar
     6    32    23    1
     7    23    24   am
     8    24    25    2
     9    24    26   am
    10    26    22    1
    11    22     1    1
    12     1     2   ar
    13     2     3   ar
    14     3     4   ar
    15     4     5   ar
    16     5     7    1
    17     7     8    2
    18     7     9   am
    19     9    11    1
    20    11    12   ar
    21    12    13   ar
    22    13    14   ar
    23    14    15   ar
    24    15    16   ar
    25    15    17    1
    26    17    18    1
    27    18    19    1
    28    19    20    1
    29     5     6   ar
    30    32    33   ar
    31    33    34   ar
    32    34    29   ar
    33     6     1   ar
    34    16    11   ar
    35    20    14    1
    36    23    27    1
    37    26    28    1
    38     9    10    1
    39    18    21    1
@<TRIPOS>MOLECULE
*****
 36 39 0 0 0
SMALL
GASTEIGER

@<TRIPOS>ATOM
      1 C          63.1439   83.3594   14.7675 C.ar    1  UNL1       -0.0024
      2 C          63.5171   81.9643   14.3619 C.ar    1  UNL1       -0.0026
      3 C          63.5048   81.5759   12.9131 C.ar    1  UNL1       -0.0001
      4 C          63.1194   82.5825   11.8699 C.ar    1  UNL1        0.0045
      5 C          62.7463   83.9776   12.2755 C.ar    1  UNL1        0.0534
      6 C          62.7585   84.3660   13.7244 C.ar    1  UNL1        0.0019
      7 C          62.3609   84.9842   11.2324 C.2     1  UNL1        0.2495
      8 O          62.7884   84.7893    9.8079 O.2     1  UNL1       -0.2698
      9 N          61.5480   86.1857   11.6138 N.am    1  UNL1       -0.2804
     10 H          61.2674   86.3136   12.5488 H       1  UNL1        0.1552
     11 C          61.1626   87.1925   10.5707 C.ar    1  UNL1        0.0502
     12 C          61.6906   88.5942   10.6500 C.ar    1  UNL1        0.0143
     13 C          61.3052   89.6009    9.6069 C.ar    1  UNL1       -0.0032
     14 C          60.3918   89.2059    8.4845 C.ar    1  UNL1       -0.0234
     15 C          59.8638   87.8041    8.4053 C.ar    1  UNL1       -0.0091
     16 C          60.2492   86.7974    9.4484 C.ar    1  UNL1        0.0114
     17 C          58.9504   87.4090    7.2829 C.3     1  UNL1        0.0954
     18 N          58.5650   88.4157    6.2399 N.3     1  UNL1       -0.2935
     19 C          59.0930   89.8175    6.3191 C.3     1  UNL1        0.0735
     20 C          60.0064   90.2125    7.4414 C.3     1  UNL1        0.0432
     21 H          57.5474   88.4829    6.2573 H       1  UNL1        0.1236
     22 C          63.1561   83.7478   16.2162 C.3     1  UNL1        0.1177
     23 N          62.8624   87.6912   16.5534 N.am    1  UNL1       -0.2683
     24 C          63.3544   86.3371   16.1358 C.2     1  UNL1        0.3047
     25 O          64.5365   86.2182   15.2201 O.2     1  UNL1       -0.2525
     26 N          62.6642   85.1019   16.6339 N.am    1  UNL1       -0.2846
     27 H          62.0866   87.7693   17.1544 H       1  UNL1        0.1564
     28 H          61.8883   85.1800   17.2349 H       1  UNL1        0.1513
     29 C          64.9328   91.3968   15.0593 C.ar    1  UNL1        0.0685
     30 C          65.0264   90.1191   14.2790 C.ar    1  UNL1        0.0115
     31 C          64.3362   88.8839   14.7771 C.ar    1  UNL1        0.0154
     32 C          63.5526   88.9264   16.0553 C.ar    1  UNL1        0.0516
     33 C          63.4590   90.2041   16.8356 C.ar    1  UNL1        0.0154
     34 C          64.1491   91.4393   16.3375 C.ar    1  UNL1        0.0115
     35 N          66.3131   93.8671   14.0631 N.1     1  UNL1       -0.1908
     36 C          65.6229   92.6319   14.5612 C.1     1  UNL1        0.1004
@<TRIPOS>BOND
     1    35    36    3
     2    36    29    1
     3    29    30   ar
     4    30    31   ar
     5    31    32   ar
     6    32    23    1
     7    23    24   am
     8    24    25    2
     9    24    26   am
    10    26    22    1
    11    22     1    1
    12     1     2   ar
    13     2     3   ar
    14     3     4   ar
    15     4     5   ar
    16     5     7    1
    17     7     8    2
    18     7     9   am
    19     9    11    1
    20    11    12   ar
    21    12    13   ar
    22    13    14   ar
    23    14    15   ar
    24    15    16   ar
    25    15    17    1
    26    17    18    1
    27    18    19    1
    28    19    20    1
    29     5     6   ar
    30    32    33   ar
    31    33    34   ar
    32    34    29   ar
    33     6     1   ar
    34    16    11   ar
    35    20    14    1
    36    23    27    1
    37    26    28    1
    38     9    10    1
    39    18    21    1
@<TRIPOS>MOLECULE
*****
 36 39 0 0 0
SMALL
GASTEIGER

@<TRIPOS>ATOM
      1 C          58.8809   89.9424    6.0912 C.ar    1  UNL1       -0.0024
      2 C          57.5048   90.4965    5.8694 C.ar    1  UNL1       -0.0026
      3 C          57.2923   91.6024    4.8785 C.ar    1  UNL1       -0.0001
      4 C          58.4561   92.1543    4.1095 C.ar    1  UNL1        0.0045
      5 C          59.8322   91.6001    4.3314 C.ar    1  UNL1        0.0534
      6 C          60.0446   90.4942    5.3223 C.ar    1  UNL1        0.0019
      7 C          60.9959   92.1519    3.5625 C.2     1  UNL1        0.2495
      8 O          62.3675   91.5795    3.7645 O.2     1  UNL1       -0.2698
      9 N          60.7879   93.2761    2.5915 N.am    1  UNL1       -0.2804
     10 H          59.8876   93.6518    2.4589 H       1  UNL1        0.1552
     11 C          61.9516   93.8280    1.8225 C.ar    1  UNL1        0.0502
     12 C          63.3380   93.7292    2.3866 C.ar    1  UNL1        0.0143
     13 C          64.5017   94.2810    1.6177 C.ar    1  UNL1       -0.0032
     14 C          64.2790   94.9316    0.2846 C.ar    1  UNL1       -0.0234
     15 C          62.8927   95.0304   -0.2796 C.ar    1  UNL1       -0.0091
     16 C          61.7289   94.4786    0.4895 C.ar    1  UNL1        0.0114
     17 C          62.6700   95.6810   -1.6126 C.3     1  UNL1        0.0954
     18 N          63.8337   96.2328   -2.3815 N.3     1  UNL1       -0.2935
     19 C          65.2200   96.1340   -1.8174 C.3     1  UNL1        0.0735
     20 C          65.4427   95.4834   -0.4844 C.3     1  UNL1        0.0432
     21 H          63.6457   97.2245   -2.5288 H       1  UNL1        0.1236
     22 C          59.0933   88.8365    7.0821 C.3     1  UNL1        0.1177
     23 N          62.0096   87.4327    9.3787 N.am    1  UNL1       -0.2683
     24 C          60.7292   87.5071    8.6009 C.2     1  UNL1        0.3047
     25 O          59.8042   86.3269    8.5642 O.2     1  UNL1       -0.2525
     26 N          60.3737   88.7620    7.8598 N.am    1  UNL1       -0.2846
     27 H          62.6167   88.2073    9.4028 H       1  UNL1        0.1564
     28 H          60.9808   89.5366    7.8839 H       1  UNL1        0.1513
     29 C          63.0760   83.6684   11.6020 C.ar    1  UNL1        0.0685
     30 C          63.4056   83.7974   10.1444 C.ar    1  UNL1        0.0115
     31 C          63.0501   85.0522    9.4032 C.ar    1  UNL1        0.0154
     32 C          62.3651   86.1779   10.1198 C.ar    1  UNL1        0.0516
     33 C          62.0356   86.0489   11.5775 C.ar    1  UNL1        0.0154
     34 C          62.3910   84.7942   12.3185 C.ar    1  UNL1        0.0115
     35 N          63.7870   81.1588   13.0841 N.1     1  UNL1       -0.1908
     36 C          63.4315   82.4137   12.3431 C.1     1  UNL1        0.1004
@<TRIPOS>BOND
     1    35    36    3
     2    36    29    1
     3    29    30   ar
     4    30    31   ar
     5    31    32   ar
     6    32    23    1
     7    23    24   am
     8    24    25    2
     9    24    26   am
    10    26    22    1
    11    22     1    1
    12     1     2   ar
    13     2     3   ar
    14     3     4   ar
    15     4     5   ar
    16     5     7    1
    17     7     8    2
    18     7     9   am
    19     9    11    1
    20    11    12   ar
    21    12    13   ar
    22    13    14   ar
    23    14    15   ar
    24    15    16   ar
    25    15    17    1
    26    17    18    1
    27    18    19    1
    28    19    20    1
    29     5     6   ar
    30    32    33   ar
    31    33    34   ar
    32    34    29   ar
    33     6     1   ar
    34    16    11   ar
    35    20    14    1
    36    23    27    1
    37    26    28    1
    38     9    10    1
    39    18    21    1
@<TRIPOS>MOLECULE
*****
 36 39 0 0 0
SMALL
GASTEIGER

@<TRIPOS>ATOM
      1 C          63.5682   84.6841   15.2836 C.ar    1  UNL1       -0.0024
      2 C          64.0040   83.2505   15.3539 C.ar    1  UNL1       -0.0026
      3 C          63.9400   82.3862   14.1296 C.ar    1  UNL1       -0.0001
      4 C          63.4403   82.9555   12.8349 C.ar    1  UNL1        0.0045
      5 C          63.0045   84.3891   12.7646 C.ar    1  UNL1        0.0534
      6 C          63.0685   85.2534   13.9889 C.ar    1  UNL1        0.0019
      7 C          62.5048   84.9584   11.4699 C.2     1  UNL1        0.2495
      8 O          63.0993   84.5018   10.1707 O.2     1  UNL1       -0.2698
      9 N          61.4106   85.9844   11.4745 N.am    1  UNL1       -0.2804
     10 H          61.0204   86.2841   12.3273 H       1  UNL1        0.1552
     11 C          60.9108   86.5538   10.1799 C.ar    1  UNL1        0.0502
     12 C          60.6969   85.6549    8.9982 C.ar    1  UNL1        0.0143
     13 C          60.1972   86.2242    7.7036 C.ar    1  UNL1       -0.0032
     14 C          59.9113   87.6924    7.5906 C.ar    1  UNL1       -0.0234
     15 C          60.1252   88.5913    8.7722 C.ar    1  UNL1       -0.0091
     16 C          60.6250   88.0219   10.0669 C.ar    1  UNL1        0.0114
     17 C          59.8393   90.0594    8.6593 C.3     1  UNL1        0.0954
     18 N          59.3396   90.6287    7.3646 N.3     1  UNL1       -0.2935
     19 C          59.1257   89.7299    6.1830 C.3     1  UNL1        0.0735
     20 C          59.4116   88.2617    6.2959 C.3     1  UNL1        0.0432
     21 H          60.0122   91.3392    7.0763 H       1  UNL1        0.1236
     22 C          63.6322   85.5483   16.5078 C.3     1  UNL1        0.1177
     23 N          63.3543   89.3798   15.5112 N.am    1  UNL1       -0.2683
     24 C          63.8398   87.9616   15.5680 C.2     1  UNL1        0.3047
     25 O          65.0182   87.5386   14.7420 O.2     1  UNL1       -0.2525
     26 N          63.1467   86.9665   16.4510 N.am    1  UNL1       -0.2846
     27 H          62.5809   89.6574   16.0533 H       1  UNL1        0.1564
     28 H          62.3733   87.2441   16.9931 H       1  UNL1        0.1513
     29 C          65.4333   92.3651   12.8626 C.ar    1  UNL1        0.0685
     30 C          64.3142   91.5292   12.3161 C.ar    1  UNL1        0.0115
     31 C          63.6212   90.5340   13.1990 C.ar    1  UNL1        0.0154
     32 C          64.0473   90.3749   14.6283 C.ar    1  UNL1        0.0516
     33 C          65.1665   91.2109   15.1748 C.ar    1  UNL1        0.0154
     34 C          65.8595   92.2060   14.2920 C.ar    1  UNL1        0.0115
     35 N          66.8194   94.3554   11.0968 N.1     1  UNL1       -0.1908
     36 C          66.1263   93.3603   11.9797 C.1     1  UNL1        0.1004
@<TRIPOS>BOND
     1    35    36    3
     2    36    29    1
     3    29    30   ar
     4    30    31   ar
     5    31    32   ar
     6    32    23    1
     7    23    24   am
     8    24    25    2
     9    24    26   am
    10    26    22    1
    11    22     1    1
    12     1     2   ar
    13     2     3   ar
    14     3     4   ar
    15     4     5   ar
    16     5     7    1
    17     7     8    2
    18     7     9   am
    19     9    11    1
    20    11    12   ar
    21    12    13   ar
    22    13    14   ar
    23    14    15   ar
    24    15    16   ar
    25    15    17    1
    26    17    18    1
    27    18    19    1
    28    19    20    1
    29     5     6   ar
    30    32    33   ar
    31    33    34   ar
    32    34    29   ar
    33     6     1   ar
    34    16    11   ar
    35    20    14    1
    36    23    27    1
    37    26    28    1
    38     9    10    1
    39    18    21    1
@<TRIPOS>MOLECULE
*****
 36 39 0 0 0
SMALL
GASTEIGER

@<TRIPOS>ATOM
      1 C          59.6868   88.0413    8.0258 C.ar    1  UNL1       -0.0024
      2 C          60.0424   86.5878    7.9214 C.ar    1  UNL1       -0.0026
      3 C          61.2082   86.0437    8.6926 C.ar    1  UNL1       -0.0001
      4 C          62.0185   86.9531    9.5681 C.ar    1  UNL1        0.0045
      5 C          61.6629   88.4066    9.6725 C.ar    1  UNL1        0.0534
      6 C          60.4970   88.9507    8.9013 C.ar    1  UNL1        0.0019
      7 C          62.4731   89.3159   10.5480 C.2     1  UNL1        0.2495
      8 O          62.8966   90.6630   10.0419 O.2     1  UNL1       -0.2698
      9 N          62.8599   88.8782   11.9296 N.am    1  UNL1       -0.2804
     10 H          62.5819   87.9941   12.2617 H       1  UNL1        0.1552
     11 C          63.6702   89.7876   12.8051 C.ar    1  UNL1        0.0502
     12 C          63.7776   89.5129   14.2759 C.ar    1  UNL1        0.0143
     13 C          64.5878   90.4222   15.1514 C.ar    1  UNL1       -0.0032
     14 C          65.2907   91.6063   14.5563 C.ar    1  UNL1       -0.0234
     15 C          65.1832   91.8810   13.0856 C.ar    1  UNL1       -0.0091
     16 C          64.3729   90.9716   12.2100 C.ar    1  UNL1        0.0114
     17 C          65.8860   93.0649   12.4904 C.3     1  UNL1        0.0954
     18 N          66.6962   93.9742   13.3660 N.3     1  UNL1       -0.2935
     19 C          66.8037   93.6996   14.8367 C.3     1  UNL1        0.0735
     20 C          66.1009   92.5156   15.4319 C.3     1  UNL1        0.0432
     21 H          66.2977   94.9082   13.2692 H       1  UNL1        0.1236
     22 C          58.5209   88.5855    7.2546 C.3     1  UNL1        0.1177
     23 N          59.5263   91.7909    5.1416 N.am    1  UNL1       -0.2683
     24 C          59.4970   90.3795    5.6488 C.2     1  UNL1        0.3047
     25 O          60.4146   89.3509    5.0573 O.2     1  UNL1       -0.2525
     26 N          58.5502   89.9969    6.7475 N.am    1  UNL1       -0.2846
     27 H          58.9240   92.4660    5.5299 H       1  UNL1        0.1564
     28 H          57.9479   90.6720    7.1357 H       1  UNL1        0.1513
     29 C          62.3667   92.9390    1.8456 C.ar    1  UNL1        0.0685
     30 C          60.9938   93.5410    1.8961 C.ar    1  UNL1        0.0115
     31 C          60.0469   93.1583    2.9948 C.ar    1  UNL1        0.0154
     32 C          60.4731   92.1736    4.0430 C.ar    1  UNL1        0.0516
     33 C          61.8461   91.5716    3.9925 C.ar    1  UNL1        0.0154
     34 C          62.7929   91.9543    2.8938 C.ar    1  UNL1        0.0115
     35 N          64.2604   93.7044   -0.3517 N.1     1  UNL1       -0.1908
     36 C          63.3135   93.3217    0.7470 C.1     1  UNL1        0.1004
@<TRIPOS>BOND
     1    35    36    3
     2    36    29    1
     3    29    30   ar
     4    30    31   ar
     5    31    32   ar
     6    32    23    1
     7    23    24   am
     8    24    25    2
     9    24    26   am
    10    26    22    1
    11    22     1    1
    12     1     2   ar
    13     2     3   ar
    14     3     4   ar
    15     4     5   ar
    16     5     7    1
    17     7     8    2
    18     7     9   am
    19     9    11    1
    20    11    12   ar
    21    12    13   ar
    22    13    14   ar
    23    14    15   ar
    24    15    16   ar
    25    15    17    1
    26    17    18    1
    27    18    19    1
    28    19    20    1
    29     5     6   ar
    30    32    33   ar
    31    33    34   ar
    32    34    29   ar
    33     6     1   ar
    34    16    11   ar
    35    20    14    1
    36    23    27    1
    37    26    28    1
    38     9    10    1
    39    18    21    1
