@<TRIPOS>MOLECULE
*****
 51 55 0 0 0
SMALL
GASTEIGER

@<TRIPOS>ATOM
      1 C          60.5233   88.9749    9.0889 C.3     1  UNL1        0.0760
      2 C          59.4170   89.4575    6.7881 C.2     1  UNL1        0.2406
      3 O          59.7943   88.0838    6.3186 O.2     1  UNL1       -0.2733
      4 N          59.7815   89.9031    8.1733 N.am    1  UNL1       -0.3043
      5 H          59.5338   90.8047    8.4815 H       1  UNL1        0.1494
      6 N          61.2098   92.2467    3.3761 N.am    1  UNL1       -0.2566
      7 C          62.6691   92.3328    3.0403 C.3     1  UNL1        0.1168
      8 C          60.7449   91.3344    4.4722 C.2     1  UNL1        0.3078
      9 O          61.7395   90.5080    5.2325 O.2     1  UNL1       -0.2523
     10 N          59.2856   91.2484    4.8081 N.am    1  UNL1       -0.2573
     11 C          58.1803   92.0100    4.1384 C.3     1  UNL1        0.0954
     12 C          56.8868   91.6179    4.7891 C.3     1  UNL1        0.0238
     13 C          57.1927   90.6141    5.8608 C.3     1  UNL1        0.0310
     14 C          58.6752   90.3856    5.8726 C.3     1  UNL1        0.1530
     15 C          60.2152   93.0732    2.6158 C.3     1  UNL1        0.1413
     16 C          61.0392   93.3582   -1.1663 C.ar    1  UNL1        0.0875
     17 N          61.4459   93.4560    0.2741 N.ar    1  UNL1       -0.2453
     18 C          60.2558   93.1043    1.1167 C.ar    1  UNL1        0.0858
     19 C          59.1136   92.7891    0.1971 C.ar    1  UNL1        0.0530
     20 S          59.5976   92.9461   -1.2140 S.2     1  UNL1       -0.0705
     21 C          61.3115   94.0362   -3.6595 C.3     1  UNL1        0.0069
     22 C          61.9193   93.6256   -2.3512 C.3     1  UNL1        0.0465
     23 C          63.4074   93.4825   -2.2276 C.3     1  UNL1        0.0069
     24 C          61.6341   89.4996    9.9495 C.3     1  UNL1        0.0216
     25 C          61.5081   89.4596   11.4437 C.3     1  UNL1        0.0217
     26 C          62.7227   89.6456   12.3041 C.3     1  UNL1        0.0792
     27 N          63.5400   88.4568   12.7147 N.am    1  UNL1       -0.2720
     28 C          63.8786   88.2426   14.1603 C.2     1  UNL1        0.4019
     29 O          63.3998   89.2172   15.1951 O.2     1  UNL1       -0.2264
     30 H          63.8543   87.8171   12.0356 H       1  UNL1        0.1527
     31 O          64.6960   87.0538   14.5710 O.3     1  UNL1       -0.4291
     32 C          64.1007   86.0072   15.4655 C.3     1  UNL1        0.2447
     33 C          63.7025   84.6759   14.9007 C.ar    1  UNL1        0.0714
     34 C          64.5515   83.7982   14.0295 C.ar    1  UNL1        0.1053
     35 N          63.7591   82.5684   13.6982 N.ar    1  UNL1       -0.2350
     36 C          62.4204   82.6861   14.3646 C.ar    1  UNL1        0.1343
     37 S          62.3854   83.9886   15.1077 S.2     1  UNL1       -0.0652
     38 C          63.1198   91.0203   12.7538 C.3     1  UNL1        0.0460
     39 C          64.4386   91.5962   12.3304 C.ar    1  UNL1       -0.0205
     40 C          65.5448   91.7525   13.3313 C.ar    1  UNL1       -0.0042
     41 C          66.8635   92.3284   12.9079 C.ar    1  UNL1       -0.0003
     42 C          67.0760   92.7479   11.4835 C.ar    1  UNL1       -0.0000
     43 C          65.9698   92.5916   10.4826 C.ar    1  UNL1       -0.0003
     44 C          64.6511   92.0157   10.9060 C.ar    1  UNL1       -0.0042
     45 C          60.1543   87.5220    9.1437 C.3     1  UNL1        0.0459
     46 C          61.2018   86.4933    9.4511 C.ar    1  UNL1       -0.0205
     47 C          61.3611   85.9805   10.8518 C.ar    1  UNL1       -0.0042
     48 C          62.4086   84.9518   11.1592 C.ar    1  UNL1       -0.0003
     49 C          63.2967   84.4358   10.0660 C.ar    1  UNL1       -0.0000
     50 C          63.1374   84.9486    8.6655 C.ar    1  UNL1       -0.0003
     51 C          62.0899   85.9773    8.3580 C.ar    1  UNL1       -0.0042
@<TRIPOS>BOND
     1    21    22    1
     2    22    23    1
     3    22    16    1
     4    16    17   ar
     5    17    18   ar
     6    18    15    1
     7    15     6    1
     8     6     7    1
     9     6     8   am
    10     8     9    2
    11     8    10   am
    12    10    11    1
    13    11    12    1
    14    12    13    1
    15    13    14    1
    16    14     2    1
    17     2     3    2
    18     2     4   am
    19     4     1    1
    20     1    24    1
    21    24    25    1
    22    26    25    1
    23    26    38    1
    24    38    39    1
    25    39    40   ar
    26    40    41   ar
    27    41    42   ar
    28    42    43   ar
    29    43    44   ar
    30    26    27    1
    31    27    28   am
    32    28    29    2
    33    28    31    1
    34    31    32    1
    35    32    33    1
    36    33    34   ar
    37    34    35   ar
    38    35    36   ar
    39    36    37   ar
    40     1    45    1
    41    45    46    1
    42    46    47   ar
    43    47    48   ar
    44    48    49   ar
    45    49    50   ar
    46    50    51   ar
    47    18    19   ar
    48    19    20   ar
    49    20    16   ar
    50    14    10    1
    51    44    39   ar
    52    37    33   ar
    53    51    46   ar
    54     4     5    1
    55    27    30    1
@<TRIPOS>MOLECULE
*****
 51 55 0 0 0
SMALL
GASTEIGER

@<TRIPOS>ATOM
      1 C          64.8624   90.5397   14.4384 C.3     1  UNL1        0.0760
      2 C          63.3445   88.7982   15.6274 C.2     1  UNL1        0.2406
      3 O          62.1511   89.6747   15.3877 O.2     1  UNL1       -0.2733
      4 N          64.7002   89.2307   15.1527 N.am    1  UNL1       -0.3043
      5 H          65.4835   88.6554   15.3100 H       1  UNL1        0.1494
      6 N          63.7936   84.4149   13.8325 N.am    1  UNL1       -0.2566
      7 C          64.1343   84.1228   12.4013 C.3     1  UNL1        0.1168
      8 C          63.6750   85.8351   14.3006 C.2     1  UNL1        0.3078
      9 O          63.8972   86.9632   13.3371 O.2     1  UNL1       -0.2523
     10 N          63.3343   86.1272   15.7318 N.am    1  UNL1       -0.2573
     11 C          63.0856   85.1086   16.8045 C.3     1  UNL1        0.0954
     12 C          62.7800   85.8411   18.0774 C.3     1  UNL1        0.0238
     13 C          62.8399   87.3124   17.7913 C.3     1  UNL1        0.0310
     14 C          63.1824   87.4892   16.3417 C.3     1  UNL1        0.1530
     15 C          63.5714   83.2868   14.7959 C.3     1  UNL1        0.1413
     16 C          60.7821   80.6693   14.1378 C.ar    1  UNL1        0.0875
     17 N          61.2442   81.9744   14.7149 N.ar    1  UNL1       -0.2453
     18 C          62.7040   82.1270   14.4055 C.ar    1  UNL1        0.0858
     19 C          63.1441   80.9162   13.6374 C.ar    1  UNL1        0.0530
     20 S          61.9563   80.0152   13.4718 S.2     1  UNL1       -0.0705
     21 C          58.2113   81.0170   13.9956 C.3     1  UNL1        0.0069
     22 C          59.3902   80.1154   14.2134 C.3     1  UNL1        0.0465
     23 C          59.1770   78.6599   14.5069 C.3     1  UNL1        0.0069
     24 C          64.5645   90.6355   12.9714 C.3     1  UNL1        0.0216
     25 C          64.4543   91.9796   12.3147 C.3     1  UNL1        0.0217
     26 C          64.5171   92.0916   10.8202 C.3     1  UNL1        0.0792
     27 N          63.2767   91.8929   10.0004 N.am    1  UNL1       -0.2720
     28 C          62.5213   90.5997   10.0845 C.2     1  UNL1        0.4019
     29 O          63.0063   89.5052   10.9882 O.2     1  UNL1       -0.2264
     30 H          62.9585   92.6113    9.4073 H       1  UNL1        0.1527
     31 O          61.2809   90.4011    9.2647 O.3     1  UNL1       -0.4291
     32 C          60.2828   89.3523    9.6567 C.3     1  UNL1        0.2447
     33 C          60.1688   88.0889    8.8561 C.ar    1  UNL1        0.0714
     34 C          59.1722   87.8221    7.7672 C.ar    1  UNL1        0.1053
     35 N          59.4188   86.4389    7.2419 N.ar    1  UNL1       -0.2350
     36 C          60.5678   85.8508    8.0061 C.ar    1  UNL1        0.1343
     37 S          61.0313   86.8706    9.0037 S.2     1  UNL1       -0.0652
     38 C          65.8203   92.4022   10.1455 C.3     1  UNL1        0.0460
     39 C          66.2733   93.8256   10.0083 C.ar    1  UNL1       -0.0205
     40 C          65.9112   94.8325   11.0595 C.ar    1  UNL1       -0.0042
     41 C          66.3643   96.2558   10.9223 C.ar    1  UNL1       -0.0003
     42 C          67.1794   96.6722    9.7340 C.ar    1  UNL1       -0.0000
     43 C          67.5414   95.6653    8.6828 C.ar    1  UNL1       -0.0003
     44 C          67.0884   94.2420    8.8200 C.ar    1  UNL1       -0.0042
     45 C          65.3224   91.7529   15.1911 C.3     1  UNL1        0.0459
     46 C          66.7643   92.1637   15.1422 C.ar    1  UNL1       -0.0205
     47 C          67.6827   91.5575   14.1229 C.ar    1  UNL1       -0.0042
     48 C          69.1245   91.9683   14.0740 C.ar    1  UNL1       -0.0003
     49 C          69.6479   92.9854   15.0444 C.ar    1  UNL1       -0.0000
     50 C          68.7294   93.5916   16.0637 C.ar    1  UNL1       -0.0003
     51 C          67.2876   93.1807   16.1126 C.ar    1  UNL1       -0.0042
@<TRIPOS>BOND
     1    21    22    1
     2    22    23    1
     3    22    16    1
     4    16    17   ar
     5    17    18   ar
     6    18    15    1
     7    15     6    1
     8     6     7    1
     9     6     8   am
    10     8     9    2
    11     8    10   am
    12    10    11    1
    13    11    12    1
    14    12    13    1
    15    13    14    1
    16    14     2    1
    17     2     3    2
    18     2     4   am
    19     4     1    1
    20     1    24    1
    21    24    25    1
    22    26    25    1
    23    26    38    1
    24    38    39    1
    25    39    40   ar
    26    40    41   ar
    27    41    42   ar
    28    42    43   ar
    29    43    44   ar
    30    26    27    1
    31    27    28   am
    32    28    29    2
    33    28    31    1
    34    31    32    1
    35    32    33    1
    36    33    34   ar
    37    34    35   ar
    38    35    36   ar
    39    36    37   ar
    40     1    45    1
    41    45    46    1
    42    46    47   ar
    43    47    48   ar
    44    48    49   ar
    45    49    50   ar
    46    50    51   ar
    47    18    19   ar
    48    19    20   ar
    49    20    16   ar
    50    14    10    1
    51    44    39   ar
    52    37    33   ar
    53    51    46   ar
    54     4     5    1
    55    27    30    1
@<TRIPOS>MOLECULE
*****
 51 55 0 0 0
SMALL
GASTEIGER

@<TRIPOS>ATOM
      1 C          64.4437   90.8612   14.9443 C.3     1  UNL1        0.0760
      2 C          63.1489   88.8628   15.9835 C.2     1  UNL1        0.2406
      3 O          61.8845   89.6693   15.9593 O.2     1  UNL1       -0.2733
      4 N          64.4286   89.4587   15.4760 N.am    1  UNL1       -0.3043
      5 H          65.2585   88.9293   15.4919 H       1  UNL1        0.1494
      6 N          63.7078   84.8106   13.5537 N.am    1  UNL1       -0.2566
      7 C          63.9360   84.7424   12.0728 C.3     1  UNL1        0.1168
      8 C          63.5432   86.1410   14.2268 C.2     1  UNL1        0.3078
      9 O          63.6069   87.4032   13.4188 O.2     1  UNL1       -0.2523
     10 N          63.3151   86.2091   15.7077 N.am    1  UNL1       -0.2573
     11 C          63.2280   85.0383   16.6413 C.3     1  UNL1        0.0954
     12 C          62.9930   85.5657   18.0257 C.3     1  UNL1        0.0238
     13 C          62.9348   87.0625   17.9478 C.3     1  UNL1        0.0310
     14 C          63.1338   87.4602   16.5153 C.3     1  UNL1        0.1530
     15 C          63.6441   83.5484   14.3617 C.3     1  UNL1        0.1413
     16 C          62.7580   80.4760   12.1616 C.ar    1  UNL1        0.0875
     17 N          63.4931   81.7659   12.3756 N.ar    1  UNL1       -0.2453
     18 C          63.1351   82.2830   13.7373 C.ar    1  UNL1        0.0858
     19 C          62.1788   81.3128   14.3650 C.ar    1  UNL1        0.0530
     20 S          61.9457   80.1959   13.3912 S.2     1  UNL1       -0.0705
     21 C          62.5847   78.1398   11.0382 C.3     1  UNL1        0.0069
     22 C          62.8237   79.6169   10.9338 C.3     1  UNL1        0.0465
     23 C          63.1283   80.2349    9.6014 C.3     1  UNL1        0.0069
     24 C          63.7051   91.1925   13.6815 C.3     1  UNL1        0.0216
     25 C          64.2686   90.7823   12.3534 C.3     1  UNL1        0.0217
     26 C          64.0627   91.6535   11.1498 C.3     1  UNL1        0.0792
     27 N          63.1929   91.1818   10.0224 N.am    1  UNL1       -0.2720
     28 C          61.9156   90.4518   10.3154 C.2     1  UNL1        0.4019
     29 O          61.5082   90.1936   11.7357 O.2     1  UNL1       -0.2264
     30 H          63.4603   91.3513    9.0902 H       1  UNL1        0.1527
     31 O          61.0459   89.9801    9.1881 O.3     1  UNL1       -0.4291
     32 C          60.0912   88.8432    9.4025 C.3     1  UNL1        0.2447
     33 C          60.3012   87.5421    8.6862 C.ar    1  UNL1        0.0714
     34 C          59.3299   86.8828    7.7525 C.ar    1  UNL1        0.1053
     35 N          59.9479   85.6052    7.2670 N.ar    1  UNL1       -0.2350
     36 C          61.3012   85.4748    7.9007 C.ar    1  UNL1        0.1343
     37 S          61.5196   86.6719    8.7778 S.2     1  UNL1       -0.0652
     38 C          64.7265   92.9964   11.0736 C.3     1  UNL1        0.0460
     39 C          66.0772   93.1303   10.4348 C.ar    1  UNL1       -0.0205
     40 C          66.4753   94.4229    9.7863 C.ar    1  UNL1       -0.0042
     41 C          67.8258   94.5567    9.1475 C.ar    1  UNL1       -0.0003
     42 C          68.7783   93.3980    9.1573 C.ar    1  UNL1       -0.0000
     43 C          68.3802   92.1054    9.8059 C.ar    1  UNL1       -0.0003
     44 C          67.0296   91.9715   10.4446 C.ar    1  UNL1       -0.0042
     45 C          65.1975   91.9324   15.6754 C.3     1  UNL1        0.0459
     46 C          66.6342   92.2015   15.3385 C.ar    1  UNL1       -0.0205
     47 C          67.4614   93.0807   16.2290 C.ar    1  UNL1       -0.0042
     48 C          68.8981   93.3498   15.8922 C.ar    1  UNL1       -0.0003
     49 C          69.5076   92.7397   14.6648 C.ar    1  UNL1       -0.0000
     50 C          68.6805   91.8606   13.7744 C.ar    1  UNL1       -0.0003
     51 C          67.2438   91.5914   14.1113 C.ar    1  UNL1       -0.0042
@<TRIPOS>BOND
     1    21    22    1
     2    22    23    1
     3    22    16    1
     4    16    17   ar
     5    17    18   ar
     6    18    15    1
     7    15     6    1
     8     6     7    1
     9     6     8   am
    10     8     9    2
    11     8    10   am
    12    10    11    1
    13    11    12    1
    14    12    13    1
    15    13    14    1
    16    14     2    1
    17     2     3    2
    18     2     4   am
    19     4     1    1
    20     1    24    1
    21    24    25    1
    22    26    25    1
    23    26    38    1
    24    38    39    1
    25    39    40   ar
    26    40    41   ar
    27    41    42   ar
    28    42    43   ar
    29    43    44   ar
    30    26    27    1
    31    27    28   am
    32    28    29    2
    33    28    31    1
    34    31    32    1
    35    32    33    1
    36    33    34   ar
    37    34    35   ar
    38    35    36   ar
    39    36    37   ar
    40     1    45    1
    41    45    46    1
    42    46    47   ar
    43    47    48   ar
    44    48    49   ar
    45    49    50   ar
    46    50    51   ar
    47    18    19   ar
    48    19    20   ar
    49    20    16   ar
    50    14    10    1
    51    44    39   ar
    52    37    33   ar
    53    51    46   ar
    54     4     5    1
    55    27    30    1
@<TRIPOS>MOLECULE
*****
 51 55 0 0 0
SMALL
GASTEIGER

@<TRIPOS>ATOM
      1 C          63.1685   85.2609   12.0480 C.3     1  UNL1        0.0760
      2 C          62.7010   85.2129    9.4927 C.2     1  UNL1        0.2406
      3 O          64.1251   84.8153    9.2396 O.2     1  UNL1       -0.2733
      4 N          62.2227   85.4357   10.8969 N.am    1  UNL1       -0.3043
      5 H          61.2881   85.6966   11.0630 H       1  UNL1        0.1494
      6 N          59.9762   88.9838    8.4968 N.am    1  UNL1       -0.2566
      7 C          59.9332   90.2330    9.3259 C.3     1  UNL1        0.1168
      8 C          60.8710   87.8484    8.8969 C.2     1  UNL1        0.3078
      9 O          61.7229   87.9623   10.1264 O.2     1  UNL1       -0.2523
     10 N          60.9141   86.5992    8.0678 N.am    1  UNL1       -0.2573
     11 C          60.1235   86.3419    6.8192 C.3     1  UNL1        0.0954
     12 C          60.4761   84.9716    6.3214 C.3     1  UNL1        0.0238
     13 C          61.4846   84.3819    7.2623 C.3     1  UNL1        0.0310
     14 C          61.7553   85.3877    8.3417 C.3     1  UNL1        0.1530
     15 C          59.1244   88.8699    7.2673 C.3     1  UNL1        0.1413
     16 C          59.9478   91.4783    4.5136 C.ar    1  UNL1        0.0875
     17 N          60.3637   90.3696    5.4344 N.ar    1  UNL1       -0.2453
     18 C          59.1613   89.9495    6.2266 C.ar    1  UNL1        0.0858
     19 C          58.0023   90.7985    5.7956 C.ar    1  UNL1        0.0530
     20 S          58.4883   91.7434    4.7368 S.2     1  UNL1       -0.0705
     21 C          62.2489   91.7373    3.3354 C.3     1  UNL1        0.0069
     22 C          60.8355   92.1960    3.5405 C.3     1  UNL1        0.0465
     23 C          60.3098   93.3722    2.7723 C.3     1  UNL1        0.0069
     24 C          63.3727   86.3785   13.0273 C.3     1  UNL1        0.0216
     25 C          63.1289   87.7976   12.6073 C.3     1  UNL1        0.0217
     26 C          63.8856   88.9145   13.2630 C.3     1  UNL1        0.0792
     27 N          63.9284   90.2696   12.6212 N.am    1  UNL1       -0.2720
     28 C          64.8992   91.3021   13.1130 C.2     1  UNL1        0.4019
     29 O          65.8271   90.9794   14.2465 O.2     1  UNL1       -0.2264
     30 H          63.3194   90.4814   11.8773 H       1  UNL1        0.1527
     31 O          64.9420   92.6572   12.4712 O.3     1  UNL1       -0.4291
     32 C          65.0497   92.7777   10.9800 C.3     1  UNL1        0.2447
     33 C          66.3406   93.2159   10.3542 C.ar    1  UNL1        0.0714
     34 C          67.6030   92.4092   10.2801 C.ar    1  UNL1        0.1053
     35 N          68.6384   93.2324    9.5728 N.ar    1  UNL1       -0.2350
     36 C          68.0158   94.5479    9.2097 C.ar    1  UNL1        0.1343
     37 S          66.5957   94.5377    9.6927 S.2     1  UNL1       -0.0652
     38 C          64.5996   88.6763   14.5605 C.3     1  UNL1        0.0460
     39 C          63.9563   87.8420   15.6284 C.ar    1  UNL1       -0.0205
     40 C          64.1464   86.3541   15.6340 C.ar    1  UNL1       -0.0042
     41 C          63.5032   85.5199   16.7019 C.ar    1  UNL1       -0.0003
     42 C          62.6698   86.1736   17.7640 C.ar    1  UNL1       -0.0000
     43 C          62.4797   87.6615   17.7583 C.ar    1  UNL1       -0.0003
     44 C          63.1229   88.4957   16.6905 C.ar    1  UNL1       -0.0042
     45 C          63.9102   83.9683   12.2197 C.3     1  UNL1        0.0459
     46 C          63.1871   82.7477   12.7068 C.ar    1  UNL1       -0.0205
     47 C          63.3357   81.4463   11.9759 C.ar    1  UNL1       -0.0042
     48 C          62.6126   80.2257   12.4631 C.ar    1  UNL1       -0.0003
     49 C          61.7409   80.3066   13.6812 C.ar    1  UNL1       -0.0000
     50 C          61.5923   81.6080   14.4121 C.ar    1  UNL1       -0.0003
     51 C          62.3154   82.8286   13.9249 C.ar    1  UNL1       -0.0042
@<TRIPOS>BOND
     1    21    22    1
     2    22    23    1
     3    22    16    1
     4    16    17   ar
     5    17    18   ar
     6    18    15    1
     7    15     6    1
     8     6     7    1
     9     6     8   am
    10     8     9    2
    11     8    10   am
    12    10    11    1
    13    11    12    1
    14    12    13    1
    15    13    14    1
    16    14     2    1
    17     2     3    2
    18     2     4   am
    19     4     1    1
    20     1    24    1
    21    24    25    1
    22    26    25    1
    23    26    38    1
    24    38    39    1
    25    39    40   ar
    26    40    41   ar
    27    41    42   ar
    28    42    43   ar
    29    43    44   ar
    30    26    27    1
    31    27    28   am
    32    28    29    2
    33    28    31    1
    34    31    32    1
    35    32    33    1
    36    33    34   ar
    37    34    35   ar
    38    35    36   ar
    39    36    37   ar
    40     1    45    1
    41    45    46    1
    42    46    47   ar
    43    47    48   ar
    44    48    49   ar
    45    49    50   ar
    46    50    51   ar
    47    18    19   ar
    48    19    20   ar
    49    20    16   ar
    50    14    10    1
    51    44    39   ar
    52    37    33   ar
    53    51    46   ar
    54     4     5    1
    55    27    30    1
@<TRIPOS>MOLECULE
*****
 51 55 0 0 0
SMALL
GASTEIGER

@<TRIPOS>ATOM
      1 C          59.7733   94.1273   -0.9261 C.3     1  UNL1        0.0760
      2 C          61.0112   93.6442    1.3064 C.2     1  UNL1        0.2406
      3 O          60.7067   95.0358    1.7764 O.2     1  UNL1       -0.2733
      4 N          60.5445   93.1900   -0.0449 N.am    1  UNL1       -0.3043
      5 H          60.7443   92.2767   -0.3533 H       1  UNL1        0.1494
      6 N          59.4068   91.1403    5.0202 N.am    1  UNL1       -0.2566
      7 C          57.9883   91.1723    5.5067 C.3     1  UNL1        0.1168
      8 C          59.8131   91.9688    3.8377 C.2     1  UNL1        0.3078
      9 O          58.8007   92.8293    3.1415 O.2     1  UNL1       -0.2523
     10 N          61.2316   91.9368    3.3512 N.am    1  UNL1       -0.2573
     11 C          62.3486   91.1290    3.9428 C.3     1  UNL1        0.0954
     12 C          63.5896   91.3999    3.1450 C.3     1  UNL1        0.0238
     13 C          63.2396   92.3751    2.0603 C.3     1  UNL1        0.0310
     14 C          61.7824   92.7069    2.1877 C.3     1  UNL1        0.1530
     15 C          60.4193   90.2797    5.7164 C.3     1  UNL1        0.1413
     16 C          59.8462   88.4622    9.0977 C.ar    1  UNL1        0.0875
     17 N          60.5382   89.5060    8.2722 N.ar    1  UNL1       -0.2453
     18 C          60.0041   89.4198    6.8732 C.ar    1  UNL1        0.0858
     19 C          58.9821   88.3226    6.8340 C.ar    1  UNL1        0.0530
     20 S          58.8844   87.7307    8.2088 S.2     1  UNL1       -0.0705
     21 C          59.4926   89.1168   11.5870 C.3     1  UNL1        0.0069
     22 C          60.0757   88.1964   10.5560 C.3     1  UNL1        0.0465
     23 C          60.8882   87.0102   10.9834 C.3     1  UNL1        0.0069
     24 C          60.4972   95.1617   -1.7360 C.3     1  UNL1        0.0216
     25 C          59.7217   96.1908   -2.5038 C.3     1  UNL1        0.0217
     26 C          60.1455   96.5672   -3.8926 C.3     1  UNL1        0.0792
     27 N          61.6035   96.6549   -4.2340 N.am    1  UNL1       -0.2720
     28 C          62.2119   95.6669   -5.1848 C.2     1  UNL1        0.4019
     29 O          61.3623   94.5914   -5.7942 O.2     1  UNL1       -0.2264
     30 H          62.1612   97.3608   -3.8340 H       1  UNL1        0.1527
     31 O          63.6699   95.7546   -5.5261 O.3     1  UNL1       -0.4291
     32 C          64.6849   95.0644   -4.6639 C.3     1  UNL1        0.2447
     33 C          64.3775   94.7824   -3.2231 C.ar    1  UNL1        0.0714
     34 C          63.7906   93.5139   -2.6787 C.ar    1  UNL1        0.1053
     35 N          63.6534   93.6669   -1.1928 N.ar    1  UNL1       -0.2350
     36 C          64.1555   95.0300   -0.8189 C.ar    1  UNL1        0.1343
     37 S          64.6030   95.7194   -2.0737 S.2     1  UNL1       -0.0652
     38 C          59.1113   96.8559   -4.9400 C.3     1  UNL1        0.0460
     39 C          57.8303   96.0759   -4.9642 C.ar    1  UNL1       -0.0205
     40 C          56.8413   96.2230   -3.8461 C.ar    1  UNL1       -0.0042
     41 C          55.5603   95.4430   -3.8704 C.ar    1  UNL1       -0.0003
     42 C          55.2683   94.5158   -5.0128 C.ar    1  UNL1       -0.0000
     43 C          56.2573   94.3687   -6.1309 C.ar    1  UNL1       -0.0003
     44 C          57.5383   95.1487   -6.1067 C.ar    1  UNL1       -0.0042
     45 C          58.2781   94.0302   -0.9976 C.3     1  UNL1        0.0459
     46 C          57.6338   93.0638   -1.9468 C.ar    1  UNL1       -0.0205
     47 C          58.2985   92.7379   -3.2514 C.ar    1  UNL1       -0.0042
     48 C          57.6542   91.7716   -4.2006 C.ar    1  UNL1       -0.0003
     49 C          56.3452   91.1311   -3.8452 C.ar    1  UNL1       -0.0000
     50 C          55.6805   91.4570   -2.5407 C.ar    1  UNL1       -0.0003
     51 C          56.3248   92.4234   -1.5914 C.ar    1  UNL1       -0.0042
@<TRIPOS>BOND
     1    21    22    1
     2    22    23    1
     3    22    16    1
     4    16    17   ar
     5    17    18   ar
     6    18    15    1
     7    15     6    1
     8     6     7    1
     9     6     8   am
    10     8     9    2
    11     8    10   am
    12    10    11    1
    13    11    12    1
    14    12    13    1
    15    13    14    1
    16    14     2    1
    17     2     3    2
    18     2     4   am
    19     4     1    1
    20     1    24    1
    21    24    25    1
    22    26    25    1
    23    26    38    1
    24    38    39    1
    25    39    40   ar
    26    40    41   ar
    27    41    42   ar
    28    42    43   ar
    29    43    44   ar
    30    26    27    1
    31    27    28   am
    32    28    29    2
    33    28    31    1
    34    31    32    1
    35    32    33    1
    36    33    34   ar
    37    34    35   ar
    38    35    36   ar
    39    36    37   ar
    40     1    45    1
    41    45    46    1
    42    46    47   ar
    43    47    48   ar
    44    48    49   ar
    45    49    50   ar
    46    50    51   ar
    47    18    19   ar
    48    19    20   ar
    49    20    16   ar
    50    14    10    1
    51    44    39   ar
    52    37    33   ar
    53    51    46   ar
    54     4     5    1
    55    27    30    1
@<TRIPOS>MOLECULE
*****
 51 55 0 0 0
SMALL
GASTEIGER

@<TRIPOS>ATOM
      1 C          63.2017   84.0839   10.7281 C.3     1  UNL1        0.0760
      2 C          64.0989   84.8253   13.0509 C.2     1  UNL1        0.2406
      3 O          65.2765   83.9106   12.8880 O.2     1  UNL1       -0.2733
      4 N          63.0615   84.9120   11.9710 N.am    1  UNL1       -0.3043
      5 H          62.2886   85.5123   12.0779 H       1  UNL1        0.1494
      6 N          63.3205   89.5081   13.3694 N.am    1  UNL1       -0.2566
      7 C          63.1718   90.4185   12.1867 C.3     1  UNL1        0.1168
      8 C          63.5643   88.0427   13.1621 C.2     1  UNL1        0.3078
      9 O          63.6595   87.4876   11.7717 O.2     1  UNL1       -0.2523
     10 N          63.7130   87.1323   14.3448 N.am    1  UNL1       -0.2573
     11 C          63.6420   87.5408   15.7864 C.3     1  UNL1        0.0954
     12 C          63.8439   86.3145   16.6262 C.3     1  UNL1        0.0238
     13 C          64.0396   85.1480   15.7037 C.3     1  UNL1        0.0310
     14 C          63.9587   85.6534   14.2938 C.3     1  UNL1        0.1530
     15 C          63.2253   90.0632   14.7598 C.3     1  UNL1        0.1413
     16 C          66.3984   92.1702   15.5059 C.ar    1  UNL1        0.0875
     17 N          65.6442   91.1955   14.6510 N.ar    1  UNL1       -0.2453
     18 C          64.3027   90.9667   15.2820 C.ar    1  UNL1        0.0858
     19 C          64.2279   91.8000   16.5269 C.ar    1  UNL1        0.0530
     20 S          65.5231   92.5439   16.6654 S.2     1  UNL1       -0.0705
     21 C          68.3568   93.7672   16.1094 C.3     1  UNL1        0.0069
     22 C          67.7845   92.6816   15.2469 C.3     1  UNL1        0.0465
     23 C          68.5985   92.1074   14.1254 C.3     1  UNL1        0.0069
     24 C          63.1521   84.7400    9.3802 C.3     1  UNL1        0.0216
     25 C          61.8290   85.0480    8.7442 C.3     1  UNL1        0.0217
     26 C          61.1309   86.3394    9.0529 C.3     1  UNL1        0.0792
     27 N          60.8130   87.3028    7.9480 N.am    1  UNL1       -0.2720
     28 C          59.3976   87.4647    7.4783 C.2     1  UNL1        0.4019
     29 O          58.3003   86.6632    8.1134 O.2     1  UNL1       -0.2264
     30 H          61.5332   87.8289    7.5312 H       1  UNL1        0.1527
     31 O          59.0796   88.4281    6.3734 O.3     1  UNL1       -0.4291
     32 C          59.1041   89.9047    6.6358 C.3     1  UNL1        0.2447
     33 C          59.2504   90.8670    5.4944 C.ar    1  UNL1        0.0714
     34 C          58.1350   91.6032    4.8134 C.ar    1  UNL1        0.1053
     35 N          58.7330   92.4531    3.7317 N.ar    1  UNL1       -0.2350
     36 C          60.2180   92.2422    3.7442 C.ar    1  UNL1        0.1343
     37 S          60.5378   91.2619    4.8336 S.2     1  UNL1       -0.0652
     38 C          60.7509   86.6673   10.4664 C.3     1  UNL1        0.0460
     39 C          60.2980   88.0532   10.8191 C.ar    1  UNL1       -0.0205
     40 C          59.4020   88.2711   12.0021 C.ar    1  UNL1       -0.0042
     41 C          58.9492   89.6569   12.3548 C.ar    1  UNL1       -0.0003
     42 C          59.3924   90.8248   11.5243 C.ar    1  UNL1       -0.0000
     43 C          60.2884   90.6069   10.3413 C.ar    1  UNL1       -0.0003
     44 C          60.7412   89.2211    9.9887 C.ar    1  UNL1       -0.0042
     45 C          63.3914   82.5996   10.8333 C.3     1  UNL1        0.0459
     46 C          62.7799   81.8444   11.9760 C.ar    1  UNL1       -0.0205
     47 C          62.1368   82.5889   13.1083 C.ar    1  UNL1       -0.0042
     48 C          61.5252   81.8338   14.2510 C.ar    1  UNL1       -0.0003
     49 C          61.5567   80.3341   14.2613 C.ar    1  UNL1       -0.0000
     50 C          62.1998   79.5897   13.1290 C.ar    1  UNL1       -0.0003
     51 C          62.8114   80.3448   11.9863 C.ar    1  UNL1       -0.0042
@<TRIPOS>BOND
     1    21    22    1
     2    22    23    1
     3    22    16    1
     4    16    17   ar
     5    17    18   ar
     6    18    15    1
     7    15     6    1
     8     6     7    1
     9     6     8   am
    10     8     9    2
    11     8    10   am
    12    10    11    1
    13    11    12    1
    14    12    13    1
    15    13    14    1
    16    14     2    1
    17     2     3    2
    18     2     4   am
    19     4     1    1
    20     1    24    1
    21    24    25    1
    22    26    25    1
    23    26    38    1
    24    38    39    1
    25    39    40   ar
    26    40    41   ar
    27    41    42   ar
    28    42    43   ar
    29    43    44   ar
    30    26    27    1
    31    27    28   am
    32    28    29    2
    33    28    31    1
    34    31    32    1
    35    32    33    1
    36    33    34   ar
    37    34    35   ar
    38    35    36   ar
    39    36    37   ar
    40     1    45    1
    41    45    46    1
    42    46    47   ar
    43    47    48   ar
    44    48    49   ar
    45    49    50   ar
    46    50    51   ar
    47    18    19   ar
    48    19    20   ar
    49    20    16   ar
    50    14    10    1
    51    44    39   ar
    52    37    33   ar
    53    51    46   ar
    54     4     5    1
    55    27    30    1
