@<TRIPOS>MOLECULE
*****
 25 27 0 0 0
SMALL
GASTEIGER

@<TRIPOS>ATOM
      1 O          61.2992   89.4185    9.3234 O.2     1  UNL1       -0.2262
      2 C          61.8309   89.2526   10.7161 C.2     1  UNL1        0.4052
      3 N          62.8929   90.1795   11.2288 N.am    1  UNL1       -0.2460
      4 C          63.4247   90.0136   12.6215 C.3     1  UNL1        0.0968
      5 C          64.4867   90.9405   13.1342 C.3     1  UNL1        0.0234
      6 C          65.0171   92.0333   12.2541 C.3     1  UNL1        0.0230
      7 C          64.4854   92.1992   10.8614 C.3     1  UNL1        0.0234
      8 C          63.4233   91.2723   10.3487 C.3     1  UNL1        0.0968
      9 O          61.3005   88.1598   11.5962 O.3     1  UNL1       -0.4295
     10 C          60.8284   86.8715   10.9902 C.3     1  UNL1        0.2367
     11 C          61.8234   85.8267   10.5796 C.ar    1  UNL1        0.0213
     12 C          62.3289   84.8359   11.5859 C.ar    1  UNL1       -0.0007
     13 C          63.3239   83.7912   11.1753 C.ar    1  UNL1       -0.0002
     14 C          63.8133   83.7374    9.7584 C.ar    1  UNL1       -0.0000
     15 C          63.3078   84.7282    8.7521 C.ar    1  UNL1       -0.0002
     16 C          62.3129   85.7729    9.1627 C.ar    1  UNL1       -0.0007
     17 C          66.0792   92.9602   12.7668 C.3     1  UNL1        0.0896
     18 N          66.0133   94.4248   12.4498 N.pl3   1  UNL1       -0.3030
     19 H          65.6876   95.0609   13.1270 H       1  UNL1        0.1496
     20 C          66.4436   94.9203   11.1010 C.ar    1  UNL1        0.2169
     21 N          67.4806   94.1677   10.3212 N.ar    1  UNL1       -0.2123
     22 C          67.9109   94.6633    8.9724 C.ar    1  UNL1        0.1034
     23 C          67.3041   95.9115    8.4034 C.ar    1  UNL1        0.0414
     24 C          66.2671   96.6641    9.1831 C.ar    1  UNL1        0.1034
     25 N          65.8368   96.1686   10.5319 N.ar    1  UNL1       -0.2123
@<TRIPOS>BOND
     1     1     2    2
     2     2     9    1
     3     9    10    1
     4    10    11    1
     5    11    12   ar
     6    12    13   ar
     7    13    14   ar
     8    14    15   ar
     9    15    16   ar
    10     2     3   am
    11     3     4    1
    12     4     5    1
    13     5     6    1
    14     6    17    1
    15    17    18    1
    16    18    20    1
    17    20    21   ar
    18    21    22   ar
    19    22    23   ar
    20    23    24   ar
    21    24    25   ar
    22     6     7    1
    23     7     8    1
    24    16    11   ar
    25     8     3    1
    26    25    20   ar
    27    18    19    1
@<TRIPOS>MOLECULE
*****
 25 27 0 0 0
SMALL
GASTEIGER

@<TRIPOS>ATOM
      1 O          61.2828   88.8166    9.3422 O.2     1  UNL1       -0.2262
      2 C          61.8259   88.5708   10.7187 C.2     1  UNL1        0.4052
      3 N          62.7722   89.5557   11.3385 N.am    1  UNL1       -0.2460
      4 C          63.3153   89.3099   12.7149 C.3     1  UNL1        0.0968
      5 C          64.2617   90.2949   13.3347 C.3     1  UNL1        0.0234
      6 C          64.6650   91.5257   12.5781 C.3     1  UNL1        0.0230
      7 C          64.1220   91.7715   11.2016 C.3     1  UNL1        0.0234
      8 C          63.1755   90.7865   10.5818 C.3     1  UNL1        0.0968
      9 O          61.4225   87.3400   11.4753 O.3     1  UNL1       -0.4295
     10 C          61.3616   86.0151   10.7747 C.3     1  UNL1        0.2367
     11 C          62.4144   84.9791   11.0364 C.ar    1  UNL1        0.0213
     12 C          63.1272   84.3275    9.8888 C.ar    1  UNL1       -0.0007
     13 C          64.1799   83.2915   10.1506 C.ar    1  UNL1       -0.0002
     14 C          64.5198   82.9072   11.5601 C.ar    1  UNL1       -0.0000
     15 C          63.8069   83.5588   12.7078 C.ar    1  UNL1       -0.0002
     16 C          62.7543   84.5947   12.4460 C.ar    1  UNL1       -0.0007
     17 C          65.6114   92.5107   13.1979 C.3     1  UNL1        0.0896
     18 N          67.0466   92.5474   12.7632 N.pl3   1  UNL1       -0.3030
     19 H          67.7563   92.2639   13.3839 H       1  UNL1        0.1496
     20 C          67.4005   93.0159   11.3830 C.ar    1  UNL1        0.2169
     21 N          66.9204   94.3518   10.8983 N.ar    1  UNL1       -0.2123
     22 C          67.2744   94.8204    9.5180 C.ar    1  UNL1        0.1034
     23 C          68.1084   93.9530    8.6224 C.ar    1  UNL1        0.0414
     24 C          68.5885   92.6171    9.1071 C.ar    1  UNL1        0.1034
     25 N          68.2346   92.1486   10.4873 N.ar    1  UNL1       -0.2123
@<TRIPOS>BOND
     1     1     2    2
     2     2     9    1
     3     9    10    1
     4    10    11    1
     5    11    12   ar
     6    12    13   ar
     7    13    14   ar
     8    14    15   ar
     9    15    16   ar
    10     2     3   am
    11     3     4    1
    12     4     5    1
    13     5     6    1
    14     6    17    1
    15    17    18    1
    16    18    20    1
    17    20    21   ar
    18    21    22   ar
    19    22    23   ar
    20    23    24   ar
    21    24    25   ar
    22     6     7    1
    23     7     8    1
    24    16    11   ar
    25     8     3    1
    26    25    20   ar
    27    18    19    1
@<TRIPOS>MOLECULE
*****
 25 27 0 0 0
SMALL
GASTEIGER

@<TRIPOS>ATOM
      1 O          61.0499   89.5696    9.4288 O.2     1  UNL1       -0.2262
      2 C          61.5653   89.1496   10.7734 C.2     1  UNL1        0.4052
      3 N          62.6540   89.9380   11.4390 N.am    1  UNL1       -0.2460
      4 C          63.1694   89.5181   12.7836 C.3     1  UNL1        0.0968
      5 C          64.2581   90.3065   13.4492 C.3     1  UNL1        0.0234
      6 C          64.8315   91.5150   12.7702 C.3     1  UNL1        0.0230
      7 C          64.3160   91.9349   11.4256 C.3     1  UNL1        0.0234
      8 C          63.2273   91.1464   10.7600 C.3     1  UNL1        0.0968
      9 O          60.9920   87.9411   11.4524 O.3     1  UNL1       -0.4295
     10 C          61.5368   86.5782   11.1435 C.3     1  UNL1        0.2367
     11 C          61.5630   86.0842    9.7273 C.ar    1  UNL1        0.0213
     12 C          60.3565   86.2519    8.8521 C.ar    1  UNL1       -0.0007
     13 C          60.3827   85.7580    7.4360 C.ar    1  UNL1       -0.0002
     14 C          61.6155   85.0962    6.8952 C.ar    1  UNL1       -0.0000
     15 C          62.8219   84.9284    7.7705 C.ar    1  UNL1       -0.0002
     16 C          62.7957   85.4224    9.1866 C.ar    1  UNL1       -0.0007
     17 C          65.9201   92.3034   13.4358 C.3     1  UNL1        0.0896
     18 N          66.4103   93.5778   12.8147 N.pl3   1  UNL1       -0.3030
     19 H          66.3078   94.4309   13.2954 H       1  UNL1        0.1496
     20 C          67.0566   93.5525   11.4614 C.ar    1  UNL1        0.2169
     21 N          66.9367   94.7383   10.5507 N.ar    1  UNL1       -0.2123
     22 C          67.5830   94.7130    9.1972 C.ar    1  UNL1        0.1034
     23 C          68.3492   93.5018    8.7546 C.ar    1  UNL1        0.0414
     24 C          68.4691   92.3159    9.6653 C.ar    1  UNL1        0.1034
     25 N          67.8228   92.3413   11.0187 N.ar    1  UNL1       -0.2123
@<TRIPOS>BOND
     1     1     2    2
     2     2     9    1
     3     9    10    1
     4    10    11    1
     5    11    12   ar
     6    12    13   ar
     7    13    14   ar
     8    14    15   ar
     9    15    16   ar
    10     2     3   am
    11     3     4    1
    12     4     5    1
    13     5     6    1
    14     6    17    1
    15    17    18    1
    16    18    20    1
    17    20    21   ar
    18    21    22   ar
    19    22    23   ar
    20    23    24   ar
    21    24    25   ar
    22     6     7    1
    23     7     8    1
    24    16    11   ar
    25     8     3    1
    26    25    20   ar
    27    18    19    1
@<TRIPOS>MOLECULE
*****
 25 27 0 0 0
SMALL
GASTEIGER

@<TRIPOS>ATOM
      1 O          60.3048   87.7252    9.4608 O.2     1  UNL1       -0.2262
      2 C          61.1781   87.7602   10.6798 C.2     1  UNL1        0.4052
      3 N          62.0736   88.9378   10.9274 N.am    1  UNL1       -0.2460
      4 C          62.9469   88.9727   12.1465 C.3     1  UNL1        0.0968
      5 C          63.8424   90.1503   12.3940 C.3     1  UNL1        0.0234
      6 C          63.8647   91.2930   11.4225 C.3     1  UNL1        0.0230
      7 C          62.9914   91.2581   10.2034 C.3     1  UNL1        0.0234
      8 C          62.0958   90.0804    9.9559 C.3     1  UNL1        0.0968
      9 O          61.1559   86.6175   11.6514 O.3     1  UNL1       -0.4295
     10 C          61.9208   85.3627   11.3510 C.3     1  UNL1        0.2367
     11 C          62.7300   84.7017   12.4273 C.ar    1  UNL1        0.0213
     12 C          63.5575   85.5339   13.3615 C.ar    1  UNL1       -0.0007
     13 C          64.3666   84.8730   14.4377 C.ar    1  UNL1       -0.0002
     14 C          64.3483   83.3798   14.5798 C.ar    1  UNL1       -0.0000
     15 C          63.5209   82.5476   13.6456 C.ar    1  UNL1       -0.0002
     16 C          62.7117   83.2086   12.5694 C.ar    1  UNL1       -0.0007
     17 C          64.7602   92.4706   11.6700 C.3     1  UNL1        0.0896
     18 N          66.2122   92.2567   11.9797 N.pl3   1  UNL1       -0.3030
     19 H          66.8405   92.0252   11.2580 H       1  UNL1        0.1496
     20 C          66.7068   92.3953   13.3889 C.ar    1  UNL1        0.2169
     21 N          68.1805   92.4156   13.6680 N.ar    1  UNL1       -0.2123
     22 C          68.6752   92.5543   15.0773 C.ar    1  UNL1        0.1034
     23 C          67.6961   92.6727   16.2075 C.ar    1  UNL1        0.0414
     24 C          66.2225   92.6525   15.9285 C.ar    1  UNL1        0.1034
     25 N          65.7278   92.5138   14.5192 N.ar    1  UNL1       -0.2123
@<TRIPOS>BOND
     1     1     2    2
     2     2     9    1
     3     9    10    1
     4    10    11    1
     5    11    12   ar
     6    12    13   ar
     7    13    14   ar
     8    14    15   ar
     9    15    16   ar
    10     2     3   am
    11     3     4    1
    12     4     5    1
    13     5     6    1
    14     6    17    1
    15    17    18    1
    16    18    20    1
    17    20    21   ar
    18    21    22   ar
    19    22    23   ar
    20    23    24   ar
    21    24    25   ar
    22     6     7    1
    23     7     8    1
    24    16    11   ar
    25     8     3    1
    26    25    20   ar
    27    18    19    1
@<TRIPOS>MOLECULE
*****
 25 27 0 0 0
SMALL
GASTEIGER

@<TRIPOS>ATOM
      1 O          60.9500   87.0944    9.6372 O.2     1  UNL1       -0.2262
      2 C          61.7040   87.1363   10.9333 C.2     1  UNL1        0.4052
      3 N          62.4345   88.3830   11.3360 N.am    1  UNL1       -0.2460
      4 C          63.1886   88.4249   12.6320 C.3     1  UNL1        0.0968
      5 C          63.9191   89.6715   13.0347 C.3     1  UNL1        0.0234
      6 C          63.8956   90.8763   12.1413 C.3     1  UNL1        0.0230
      7 C          63.1416   90.8344   10.8453 C.3     1  UNL1        0.0234
      8 C          62.4110   89.5877   10.4426 C.3     1  UNL1        0.0968
      9 O          61.7275   85.9315   11.8266 O.3     1  UNL1       -0.4295
     10 C          62.8437   84.9359   11.7138 C.3     1  UNL1        0.2367
     11 C          62.7218   83.5945   12.3742 C.ar    1  UNL1        0.0213
     12 C          62.4104   83.5051   13.8387 C.ar    1  UNL1       -0.0007
     13 C          62.2885   82.1637   14.4990 C.ar    1  UNL1       -0.0002
     14 C          62.4780   80.9119   13.6947 C.ar    1  UNL1       -0.0000
     15 C          62.7894   81.0013   12.2301 C.ar    1  UNL1       -0.0002
     16 C          62.9113   82.3426   11.5698 C.ar    1  UNL1       -0.0007
     17 C          64.6261   92.1229   12.5440 C.3     1  UNL1        0.0896
     18 N          66.1134   92.2102   12.3696 N.pl3   1  UNL1       -0.3030
     19 H          66.7113   91.7602   13.0093 H       1  UNL1        0.1496
     20 C          66.6897   92.9830   11.2204 C.ar    1  UNL1        0.2169
     21 N          67.8653   92.4383   10.4646 N.ar    1  UNL1       -0.2123
     22 C          68.4416   93.2112    9.3154 C.ar    1  UNL1        0.1034
     23 C          67.8423   94.5288    8.9221 C.ar    1  UNL1        0.0414
     24 C          66.6667   95.0735    9.6779 C.ar    1  UNL1        0.1034
     25 N          66.0904   94.3007   10.8271 N.ar    1  UNL1       -0.2123
@<TRIPOS>BOND
     1     1     2    2
     2     2     9    1
     3     9    10    1
     4    10    11    1
     5    11    12   ar
     6    12    13   ar
     7    13    14   ar
     8    14    15   ar
     9    15    16   ar
    10     2     3   am
    11     3     4    1
    12     4     5    1
    13     5     6    1
    14     6    17    1
    15    17    18    1
    16    18    20    1
    17    20    21   ar
    18    21    22   ar
    19    22    23   ar
    20    23    24   ar
    21    24    25   ar
    22     6     7    1
    23     7     8    1
    24    16    11   ar
    25     8     3    1
    26    25    20   ar
    27    18    19    1
@<TRIPOS>MOLECULE
*****
 25 27 0 0 0
SMALL
GASTEIGER

@<TRIPOS>ATOM
      1 O          63.0565   91.1646   10.8231 O.2     1  UNL1       -0.2262
      2 C          63.7014   90.9678   12.1630 C.2     1  UNL1        0.4052
      3 N          63.7479   89.6011   12.7795 N.am    1  UNL1       -0.2460
      4 C          64.3928   89.4042   14.1194 C.3     1  UNL1        0.0968
      5 C          64.4392   88.0376   14.7359 C.3     1  UNL1        0.0234
      6 C          63.8407   86.8677   14.0124 C.3     1  UNL1        0.0230
      7 C          63.1958   87.0646   12.6725 C.3     1  UNL1        0.0234
      8 C          63.1494   88.4313   12.0561 C.3     1  UNL1        0.0968
      9 O          64.2999   92.1376   12.8865 O.3     1  UNL1       -0.4295
     10 C          65.7785   92.3821   12.8230 C.3     1  UNL1        0.2367
     11 C          66.3727   93.0825   11.6371 C.ar    1  UNL1        0.0213
     12 C          66.0827   94.5352   11.4010 C.ar    1  UNL1       -0.0007
     13 C          66.6769   95.2355   10.2151 C.ar    1  UNL1       -0.0002
     14 C          67.5610   94.4832    9.2652 C.ar    1  UNL1       -0.0000
     15 C          67.8510   93.0305    9.5012 C.ar    1  UNL1       -0.0002
     16 C          67.2568   92.3302   10.6872 C.ar    1  UNL1       -0.0007
     17 C          63.8872   85.5011   14.6289 C.3     1  UNL1        0.0896
     18 N          62.6642   84.6326   14.6206 N.pl3   1  UNL1       -0.3030
     19 H          61.8522   84.9213   15.0965 H       1  UNL1        0.1496
     20 C          62.6784   83.3243   13.8871 C.ar    1  UNL1        0.2169
     21 N          62.3864   82.0494   14.6216 N.ar    1  UNL1       -0.2123
     22 C          62.4006   80.7411   13.8880 C.ar    1  UNL1        0.1034
     23 C          62.7068   80.7076   12.4200 C.ar    1  UNL1        0.0414
     24 C          62.9988   81.9824   11.6855 C.ar    1  UNL1        0.1034
     25 N          62.9847   83.2907   12.4190 N.ar    1  UNL1       -0.2123
@<TRIPOS>BOND
     1     1     2    2
     2     2     9    1
     3     9    10    1
     4    10    11    1
     5    11    12   ar
     6    12    13   ar
     7    13    14   ar
     8    14    15   ar
     9    15    16   ar
    10     2     3   am
    11     3     4    1
    12     4     5    1
    13     5     6    1
    14     6    17    1
    15    17    18    1
    16    18    20    1
    17    20    21   ar
    18    21    22   ar
    19    22    23   ar
    20    23    24   ar
    21    24    25   ar
    22     6     7    1
    23     7     8    1
    24    16    11   ar
    25     8     3    1
    26    25    20   ar
    27    18    19    1
@<TRIPOS>MOLECULE
*****
 25 27 0 0 0
SMALL
GASTEIGER

@<TRIPOS>ATOM
      1 O          59.8171   88.0268    7.5328 O.2     1  UNL1       -0.2262
      2 C          60.2892   87.7508    8.9296 C.2     1  UNL1        0.4052
      3 N          61.2738   86.6482    9.1844 N.am    1  UNL1       -0.2460
      4 C          61.7459   86.3722   10.5811 C.3     1  UNL1        0.0968
      5 C          62.7305   85.2697   10.8359 C.3     1  UNL1        0.0234
      6 C          63.2431   84.4431    9.6939 C.3     1  UNL1        0.0230
      7 C          62.7710   84.7191    8.2971 C.3     1  UNL1        0.0234
      8 C          61.7863   85.8217    8.0424 C.3     1  UNL1        0.0968
      9 O          59.7767   88.5774   10.0716 O.3     1  UNL1       -0.4295
     10 C          60.2253   90.0001   10.2283 C.3     1  UNL1        0.2367
     11 C          61.5275   90.3054   10.9075 C.ar    1  UNL1        0.0213
     12 C          62.5705   91.1179   10.1991 C.ar    1  UNL1       -0.0007
     13 C          63.8725   91.4232   10.8784 C.ar    1  UNL1       -0.0002
     14 C          64.1316   90.9159   12.2660 C.ar    1  UNL1       -0.0000
     15 C          63.0886   90.1034   12.9744 C.ar    1  UNL1       -0.0002
     16 C          61.7865   89.7981   12.2952 C.ar    1  UNL1       -0.0007
     17 C          64.2276   83.3406    9.9487 C.3     1  UNL1        0.0896
     18 N          63.8786   82.2260   10.8900 N.pl3   1  UNL1       -0.3030
     19 H          63.8599   81.2963   10.5666 H       1  UNL1        0.1496
     20 C          63.5581   82.5279   12.3238 C.ar    1  UNL1        0.2169
     21 N          64.5028   83.3538   13.1457 N.ar    1  UNL1       -0.2123
     22 C          64.1822   83.6557   14.5796 C.ar    1  UNL1        0.1034
     23 C          62.9170   83.1317   15.1917 C.ar    1  UNL1        0.0414
     24 C          61.9723   82.3058   14.3698 C.ar    1  UNL1        0.1034
     25 N          62.2928   82.0039   12.9359 N.ar    1  UNL1       -0.2123
@<TRIPOS>BOND
     1     1     2    2
     2     2     9    1
     3     9    10    1
     4    10    11    1
     5    11    12   ar
     6    12    13   ar
     7    13    14   ar
     8    14    15   ar
     9    15    16   ar
    10     2     3   am
    11     3     4    1
    12     4     5    1
    13     5     6    1
    14     6    17    1
    15    17    18    1
    16    18    20    1
    17    20    21   ar
    18    21    22   ar
    19    22    23   ar
    20    23    24   ar
    21    24    25   ar
    22     6     7    1
    23     7     8    1
    24    16    11   ar
    25     8     3    1
    26    25    20   ar
    27    18    19    1
@<TRIPOS>MOLECULE
*****
 25 27 0 0 0
SMALL
GASTEIGER

@<TRIPOS>ATOM
      1 O          63.8690   92.5080   10.1771 O.2     1  UNL1       -0.2262
      2 C          63.9743   91.5668   11.3402 C.2     1  UNL1        0.4052
      3 N          63.3447   90.2075   11.2645 N.am    1  UNL1       -0.2460
      4 C          63.4500   89.2662   12.4277 C.3     1  UNL1        0.0968
      5 C          62.8203   87.9069   12.3519 C.3     1  UNL1        0.0234
      6 C          62.0853   87.4888   11.1129 C.3     1  UNL1        0.0230
      7 C          61.9800   88.4301    9.9498 C.3     1  UNL1        0.0234
      8 C          62.6097   89.7894   10.0256 C.3     1  UNL1        0.0968
      9 O          64.7094   91.9849   12.5792 O.3     1  UNL1       -0.4295
     10 C          66.1752   92.2962   12.5126 C.3     1  UNL1        0.2367
     11 C          66.7218   93.0901   11.3632 C.ar    1  UNL1        0.0213
     12 C          66.4183   94.5548   11.2518 C.ar    1  UNL1       -0.0007
     13 C          66.9650   95.3487   10.1025 C.ar    1  UNL1       -0.0002
     14 C          67.8151   94.6778    9.0646 C.ar    1  UNL1       -0.0000
     15 C          68.1186   93.2131    9.1761 C.ar    1  UNL1       -0.0002
     16 C          67.5720   92.4193   10.3254 C.ar    1  UNL1       -0.0007
     17 C          61.4556   86.1295   11.0372 C.3     1  UNL1        0.0896
     18 N          62.3168   84.9120   10.8756 N.pl3   1  UNL1       -0.3030
     19 H          62.5903   84.6183    9.9767 H       1  UNL1        0.1496
     20 C          62.7611   84.1420   12.0837 C.ar    1  UNL1        0.2169
     21 N          62.4145   84.6357   13.4571 N.ar    1  UNL1       -0.2123
     22 C          62.8589   83.8656   14.6653 C.ar    1  UNL1        0.1034
     23 C          63.6498   82.6018   14.5000 C.ar    1  UNL1        0.0414
     24 C          63.9963   82.1081   13.1266 C.ar    1  UNL1        0.1034
     25 N          63.5520   82.8781   11.9185 N.ar    1  UNL1       -0.2123
@<TRIPOS>BOND
     1     1     2    2
     2     2     9    1
     3     9    10    1
     4    10    11    1
     5    11    12   ar
     6    12    13   ar
     7    13    14   ar
     8    14    15   ar
     9    15    16   ar
    10     2     3   am
    11     3     4    1
    12     4     5    1
    13     5     6    1
    14     6    17    1
    15    17    18    1
    16    18    20    1
    17    20    21   ar
    18    21    22   ar
    19    22    23   ar
    20    23    24   ar
    21    24    25   ar
    22     6     7    1
    23     7     8    1
    24    16    11   ar
    25     8     3    1
    26    25    20   ar
    27    18    19    1
@<TRIPOS>MOLECULE
*****
 25 27 0 0 0
SMALL
GASTEIGER

@<TRIPOS>ATOM
      1 O          58.2861   92.1469    4.6170 O.2     1  UNL1       -0.2262
      2 C          59.6946   91.6321    4.5850 C.2     1  UNL1        0.4052
      3 N          60.6630   92.1598    3.5683 N.am    1  UNL1       -0.2460
      4 C          62.0716   91.6451    3.5363 C.3     1  UNL1        0.0968
      5 C          63.0400   92.1728    2.5197 C.3     1  UNL1        0.0234
      6 C          62.5999   93.2153    1.5350 C.3     1  UNL1        0.0230
      7 C          61.1914   93.7300    1.5670 C.3     1  UNL1        0.0234
      8 C          60.2229   93.2023    2.5837 C.3     1  UNL1        0.0968
      9 O          60.1347   90.5896    5.5697 O.3     1  UNL1       -0.4295
     10 C          59.1130   89.8026    6.3356 C.3     1  UNL1        0.2367
     11 C          59.5522   88.8177    7.3783 C.ar    1  UNL1        0.0213
     12 C          59.3245   87.3502    7.1670 C.ar    1  UNL1       -0.0007
     13 C          59.7637   86.3654    8.2097 C.ar    1  UNL1       -0.0002
     14 C          60.4306   86.8480    9.4636 C.ar    1  UNL1       -0.0000
     15 C          60.6583   88.3155    9.6749 C.ar    1  UNL1       -0.0002
     16 C          60.2191   89.3003    8.6322 C.ar    1  UNL1       -0.0007
     17 C          63.5684   93.7430    0.5183 C.3     1  UNL1        0.0896
     18 N          63.0768   94.5947   -0.6144 N.pl3   1  UNL1       -0.3030
     19 H          62.4147   95.3035   -0.4460 H       1  UNL1        0.1496
     20 C          63.5942   94.3664   -2.0037 C.ar    1  UNL1        0.2169
     21 N          64.3379   95.4572   -2.7158 N.ar    1  UNL1       -0.2123
     22 C          64.8552   95.2289   -4.1052 C.ar    1  UNL1        0.1034
     23 C          64.6288   93.9098   -4.7824 C.ar    1  UNL1        0.0414
     24 C          63.8851   92.8190   -4.0704 C.ar    1  UNL1        0.1034
     25 N          63.3677   93.0473   -2.6811 N.ar    1  UNL1       -0.2123
@<TRIPOS>BOND
     1     1     2    2
     2     2     9    1
     3     9    10    1
     4    10    11    1
     5    11    12   ar
     6    12    13   ar
     7    13    14   ar
     8    14    15   ar
     9    15    16   ar
    10     2     3   am
    11     3     4    1
    12     4     5    1
    13     5     6    1
    14     6    17    1
    15    17    18    1
    16    18    20    1
    17    20    21   ar
    18    21    22   ar
    19    22    23   ar
    20    23    24   ar
    21    24    25   ar
    22     6     7    1
    23     7     8    1
    24    16    11   ar
    25     8     3    1
    26    25    20   ar
    27    18    19    1
