@<TRIPOS>MOLECULE
*****
 33 37 0 0 0
SMALL
GASTEIGER

@<TRIPOS>ATOM
      1 C          61.3463   88.6042   11.1234 C.3     1  UNL1        0.1096
      2 C          60.3538   89.2592   10.2091 C.3     1  UNL1        0.1622
      3 O          59.7667   88.4887    9.0639 O.3     1  UNL1       -0.3502
      4 C          60.1721   87.0632    8.8328 C.3     1  UNL1        0.1637
      5 C          61.1646   86.4081    9.7470 C.3     1  UNL1        0.1257
      6 N          61.7517   87.1786   10.8923 N.am    1  UNL1       -0.2723
      7 C          62.7442   86.5235   11.8065 C.2     1  UNL1        0.2506
      8 O          63.3313   87.2940   12.9518 O.2     1  UNL1       -0.2699
      9 C          63.1496   85.0979   11.5755 C.ar    1  UNL1        0.0729
     10 C          63.3131   84.5820   10.1766 C.ar    1  UNL1        0.0061
     11 C          63.7185   83.1564    9.9455 C.ar    1  UNL1        0.0002
     12 C          63.9604   82.2468   11.1134 C.ar    1  UNL1        0.0016
     13 C          63.7969   82.7627   12.5123 C.ar    1  UNL1        0.0211
     14 C          63.3915   84.1883   12.7434 C.ar    1  UNL1        0.1072
     15 N          63.2280   84.7042   14.1424 N.ar    1  UNL1       -0.1477
     16 N          64.2947   85.3547   14.9725 N.ar    1  UNL1       -0.1447
     17 C          63.6951   85.7127   16.3000 C.ar    1  UNL1        0.1446
     18 C          62.2578   85.2835   16.2903 C.ar    1  UNL1        0.1446
     19 N          61.9692   84.6602   14.9568 N.ar    1  UNL1       -0.1447
     20 C          61.9334   89.3747   12.2686 C.3     1  UNL1        0.0487
     21 C          65.2630   92.3111   11.5331 C.ar    1  UNL1        0.1431
     22 C          64.3029   91.9744   10.4310 C.ar    1  UNL1        0.0367
     23 C          63.1930   90.9955   10.6762 C.ar    1  UNL1       -0.0011
     24 C          63.0433   90.3535   12.0235 C.ar    1  UNL1       -0.0201
     25 C          64.0034   90.6903   13.1256 C.ar    1  UNL1        0.0035
     26 C          65.1132   91.6691   12.8804 C.ar    1  UNL1        0.0871
     27 C          66.0733   92.0059   13.9827 C.ar    1  UNL1        0.2328
     28 N          65.7276   92.6779   15.2784 N.ar    1  UNL1       -0.2064
     29 C          66.9883   92.8170   16.0792 C.ar    1  UNL1        0.1427
     30 C          68.1132   92.2310   15.2783 C.ar    1  UNL1        0.2021
     31 O          67.5477   91.7297   13.9827 O.2     1  UNL1       -0.4313
     32 C          66.1449   94.7549   11.5161 C.3     1  UNL1        0.2525
     33 O          66.3728   93.2900   11.2880 O.3     1  UNL1       -0.4713
@<TRIPOS>BOND
     1    32    33    1
     2    33    21    1
     3    21    22   ar
     4    22    23   ar
     5    23    24   ar
     6    24    20    1
     7     1    20    1
     8     1     2    1
     9     2     3    1
    10     3     4    1
    11     4     5    1
    12     5     6    1
    13     6     7   am
    14     7     8    2
    15     7     9    1
    16     9    10   ar
    17    10    11   ar
    18    11    12   ar
    19    12    13   ar
    20    13    14   ar
    21    14    15    1
    22    15    16   ar
    23    16    17   ar
    24    17    18   ar
    25    18    19   ar
    26    24    25   ar
    27    25    26   ar
    28    26    27    1
    29    27    28   ar
    30    28    29   ar
    31    29    30   ar
    32    30    31   ar
    33    26    21   ar
    34    31    27   ar
    35     6     1    1
    36    14     9   ar
    37    19    15   ar
@<TRIPOS>MOLECULE
*****
 33 37 0 0 0
SMALL
GASTEIGER

@<TRIPOS>ATOM
      1 C          62.0759   89.5145   11.8714 C.3     1  UNL1        0.1096
      2 C          61.3530   90.5647   11.0810 C.3     1  UNL1        0.1622
      3 O          60.7764   90.2282    9.7378 O.3     1  UNL1       -0.3502
      4 C          60.9226   88.8415    9.1849 C.3     1  UNL1        0.1637
      5 C          61.6454   87.7913    9.9752 C.3     1  UNL1        0.1257
      6 N          62.2221   88.1278   11.3184 N.am    1  UNL1       -0.2723
      7 C          62.9449   87.0776   12.1087 C.2     1  UNL1        0.2506
      8 O          63.5215   87.4141   13.4519 O.2     1  UNL1       -0.2699
      9 C          63.0911   85.6909   11.5558 C.ar    1  UNL1        0.0729
     10 C          63.1080   85.4731   10.0718 C.ar    1  UNL1        0.0061
     11 C          63.2542   84.0864    9.5189 C.ar    1  UNL1        0.0002
     12 C          63.3835   82.9175   10.4499 C.ar    1  UNL1        0.0016
     13 C          63.3665   83.1353   11.9339 C.ar    1  UNL1        0.0211
     14 C          63.2203   84.5220   12.4868 C.ar    1  UNL1        0.1072
     15 N          63.2034   84.7397   13.9709 N.ar    1  UNL1       -0.1477
     16 N          64.3932   85.0499   14.8301 N.ar    1  UNL1       -0.1447
     17 C          63.9189   85.1874   16.2465 C.ar    1  UNL1        0.1446
     18 C          62.4360   84.9622   16.2626 C.ar    1  UNL1        0.1446
     19 N          61.9938   84.6855   14.8562 N.ar    1  UNL1       -0.1447
     20 C          62.6525   89.8510   13.2146 C.3     1  UNL1        0.0487
     21 C          66.5761   92.0364   13.4954 C.ar    1  UNL1        0.1431
     22 C          66.1352   91.1399   14.6142 C.ar    1  UNL1        0.0367
     23 C          64.8274   90.4114   14.5206 C.ar    1  UNL1       -0.0011
     24 C          63.9603   90.5794   13.3082 C.ar    1  UNL1       -0.0201
     25 C          64.4012   91.4760   12.1894 C.ar    1  UNL1        0.0035
     26 C          65.7091   92.2045   12.2830 C.ar    1  UNL1        0.0871
     27 C          66.1499   93.1012   11.1641 C.ar    1  UNL1        0.2328
     28 N          65.6659   94.4981   10.9109 N.ar    1  UNL1       -0.2064
     29 C          66.3690   95.0185    9.6923 C.ar    1  UNL1        0.1427
     30 C          67.2876   93.9431    9.1924 C.ar    1  UNL1        0.2021
     31 O          67.1521   92.7581   10.1021 O.2     1  UNL1       -0.4313
     32 C          68.6544   92.7608   14.8760 C.3     1  UNL1        0.2525
     33 O          67.8840   92.7649   13.5890 O.3     1  UNL1       -0.4713
@<TRIPOS>BOND
     1    32    33    1
     2    33    21    1
     3    21    22   ar
     4    22    23   ar
     5    23    24   ar
     6    24    20    1
     7     1    20    1
     8     1     2    1
     9     2     3    1
    10     3     4    1
    11     4     5    1
    12     5     6    1
    13     6     7   am
    14     7     8    2
    15     7     9    1
    16     9    10   ar
    17    10    11   ar
    18    11    12   ar
    19    12    13   ar
    20    13    14   ar
    21    14    15    1
    22    15    16   ar
    23    16    17   ar
    24    17    18   ar
    25    18    19   ar
    26    24    25   ar
    27    25    26   ar
    28    26    27    1
    29    27    28   ar
    30    28    29   ar
    31    29    30   ar
    32    30    31   ar
    33    26    21   ar
    34    31    27   ar
    35     6     1    1
    36    14     9   ar
    37    19    15   ar
@<TRIPOS>MOLECULE
*****
 33 37 0 0 0
SMALL
GASTEIGER

@<TRIPOS>ATOM
      1 C          63.2733   88.7909   15.4083 C.3     1  UNL1        0.1096
      2 C          63.1280   89.1355   16.8610 C.3     1  UNL1        0.1622
      3 O          63.0786   88.0445   17.8893 O.3     1  UNL1       -0.3502
      4 C          63.1744   86.6090   17.4650 C.3     1  UNL1        0.1637
      5 C          63.3197   86.2644   16.0124 C.3     1  UNL1        0.1257
      6 N          63.3691   87.3554   14.9840 N.am    1  UNL1       -0.2723
      7 C          63.5144   87.0107   13.5314 C.2     1  UNL1        0.2506
      8 O          63.5638   88.1017   12.5031 O.2     1  UNL1       -0.2699
      9 C          63.6103   85.5752   13.1071 C.ar    1  UNL1        0.0729
     10 C          64.4408   84.6120   13.9022 C.ar    1  UNL1        0.0061
     11 C          64.5367   83.1764   13.4779 C.ar    1  UNL1        0.0002
     12 C          63.8021   82.7041   12.2584 C.ar    1  UNL1        0.0016
     13 C          62.9716   83.6674   11.4632 C.ar    1  UNL1        0.0211
     14 C          62.8757   85.1029   11.8876 C.ar    1  UNL1        0.1072
     15 N          62.0451   86.0662   11.0923 N.ar    1  UNL1       -0.1477
     16 N          62.2769   86.4593    9.6634 N.ar    1  UNL1       -0.1447
     17 C          61.2121   87.4415    9.2743 C.ar    1  UNL1        0.1446
     18 C          60.3222   87.6554   10.4628 C.ar    1  UNL1        0.1446
     19 N          60.8371   86.8054   11.5863 N.ar    1  UNL1       -0.1447
     20 C          63.3227   89.8818   14.3800 C.3     1  UNL1        0.0487
     21 C          66.5532   93.0087   14.5704 C.ar    1  UNL1        0.1431
     22 C          66.0398   92.3829   15.8332 C.ar    1  UNL1        0.0367
     23 C          64.9629   91.3406   15.7698 C.ar    1  UNL1       -0.0011
     24 C          64.3995   90.9241   14.4435 C.ar    1  UNL1       -0.0201
     25 C          64.9130   91.5499   13.1807 C.ar    1  UNL1        0.0035
     26 C          65.9898   92.5921   13.2442 C.ar    1  UNL1        0.0871
     27 C          66.5033   93.2179   11.9813 C.ar    1  UNL1        0.2328
     28 N          66.1736   94.5932   11.4814 N.ar    1  UNL1       -0.2064
     29 C          66.9031   94.8035   10.1878 C.ar    1  UNL1        0.1427
     30 C          67.6837   93.5581    9.8880 C.ar    1  UNL1        0.2021
     31 O          67.4366   92.5782   10.9965 O.2     1  UNL1       -0.4313
     32 C          68.6798   93.9807   15.7030 C.3     1  UNL1        0.2525
     33 O          67.6301   94.0509   14.6339 O.3     1  UNL1       -0.4713
@<TRIPOS>BOND
     1    32    33    1
     2    33    21    1
     3    21    22   ar
     4    22    23   ar
     5    23    24   ar
     6    24    20    1
     7     1    20    1
     8     1     2    1
     9     2     3    1
    10     3     4    1
    11     4     5    1
    12     5     6    1
    13     6     7   am
    14     7     8    2
    15     7     9    1
    16     9    10   ar
    17    10    11   ar
    18    11    12   ar
    19    12    13   ar
    20    13    14   ar
    21    14    15    1
    22    15    16   ar
    23    16    17   ar
    24    17    18   ar
    25    18    19   ar
    26    24    25   ar
    27    25    26   ar
    28    26    27    1
    29    27    28   ar
    30    28    29   ar
    31    29    30   ar
    32    30    31   ar
    33    26    21   ar
    34    31    27   ar
    35     6     1    1
    36    14     9   ar
    37    19    15   ar
@<TRIPOS>MOLECULE
*****
 33 37 0 0 0
SMALL
GASTEIGER

@<TRIPOS>ATOM
      1 C          62.2830   86.3826   10.1813 C.3     1  UNL1        0.1096
      2 C          62.4780   86.6871    8.7255 C.3     1  UNL1        0.1622
      3 O          62.9845   85.6227    7.7979 O.3     1  UNL1       -0.3502
      4 C          63.2959   84.2537    8.3261 C.3     1  UNL1        0.1637
      5 C          63.1009   83.9492    9.7818 C.3     1  UNL1        0.1257
      6 N          62.5944   85.0137   10.7095 N.am    1  UNL1       -0.2723
      7 C          62.3995   84.7092   12.1652 C.2     1  UNL1        0.2506
      8 O          61.8930   85.7736   13.0928 O.2     1  UNL1       -0.2699
      9 C          62.7109   83.3402   12.6934 C.ar    1  UNL1        0.0729
     10 C          62.5350   82.1387   11.8128 C.ar    1  UNL1        0.0061
     11 C          62.8465   80.7697   12.3410 C.ar    1  UNL1        0.0002
     12 C          63.3338   80.6023   13.7497 C.ar    1  UNL1        0.0016
     13 C          63.5096   81.8038   14.6302 C.ar    1  UNL1        0.0211
     14 C          63.1982   83.1727   14.1021 C.ar    1  UNL1        0.1072
     15 N          63.3740   84.3743   14.9827 N.ar    1  UNL1       -0.1477
     16 N          62.4518   84.8015   16.0858 N.ar    1  UNL1       -0.1447
     17 C          63.0107   86.0507   16.6997 C.ar    1  UNL1        0.1446
     18 C          64.2785   86.3956   15.9759 C.ar    1  UNL1        0.1446
     19 N          64.5030   85.3595   14.9148 N.ar    1  UNL1       -0.1447
     20 C          61.7766   87.4471   11.1089 C.3     1  UNL1        0.0487
     21 C          63.7910   91.4692   11.2317 C.ar    1  UNL1        0.1431
     22 C          63.1481   90.9907    9.9638 C.ar    1  UNL1        0.0367
     23 C          62.4767   89.6500    9.9228 C.ar    1  UNL1       -0.0011
     24 C          62.4480   88.7878   11.1499 C.ar    1  UNL1       -0.0201
     25 C          63.0909   89.2662   12.4178 C.ar    1  UNL1        0.0035
     26 C          63.7624   90.6069   12.4588 C.ar    1  UNL1        0.0871
     27 C          64.4052   91.0853   13.7268 C.ar    1  UNL1        0.2328
     28 N          63.7211   91.2619   15.0500 N.ar    1  UNL1       -0.2064
     29 C          64.7382   91.7569   16.0352 C.ar    1  UNL1        0.1427
     30 C          66.0509   91.8862   15.3209 C.ar    1  UNL1        0.2021
     31 O          65.8451   91.4712   13.8943 O.2     1  UNL1       -0.4313
     32 C          65.7823   93.0088   10.5884 C.3     1  UNL1        0.2525
     33 O          64.4624   92.8098   11.2727 O.3     1  UNL1       -0.4713
@<TRIPOS>BOND
     1    32    33    1
     2    33    21    1
     3    21    22   ar
     4    22    23   ar
     5    23    24   ar
     6    24    20    1
     7     1    20    1
     8     1     2    1
     9     2     3    1
    10     3     4    1
    11     4     5    1
    12     5     6    1
    13     6     7   am
    14     7     8    2
    15     7     9    1
    16     9    10   ar
    17    10    11   ar
    18    11    12   ar
    19    12    13   ar
    20    13    14   ar
    21    14    15    1
    22    15    16   ar
    23    16    17   ar
    24    17    18   ar
    25    18    19   ar
    26    24    25   ar
    27    25    26   ar
    28    26    27    1
    29    27    28   ar
    30    28    29   ar
    31    29    30   ar
    32    30    31   ar
    33    26    21   ar
    34    31    27   ar
    35     6     1    1
    36    14     9   ar
    37    19    15   ar
