@<TRIPOS>MOLECULE
*****
 26 30 0 0 0
SMALL
GASTEIGER

@<TRIPOS>ATOM
      1 O          63.3133   89.5725   12.6271 O.2     1  UNL1       -0.2638
      2 C          62.5067   88.9315   11.5369 C.2     1  UNL1        0.3160
      3 N          61.8438   89.7828   10.4948 N.am    1  UNL1       -0.1720
      4 C          61.0371   89.1417    9.4046 C.ar    1  UNL1        0.0775
      5 C          60.3743   89.9930    8.3626 C.ar    1  UNL1        0.0172
      6 C          59.5677   89.3520    7.2725 C.ar    1  UNL1        0.0073
      7 C          59.4239   87.8597    7.2244 C.ar    1  UNL1        0.0007
      8 C          60.0868   87.0084    8.2664 C.ar    1  UNL1        0.0051
      9 C          60.8934   87.6494    9.3566 C.ar    1  UNL1        0.0623
     10 C          61.5563   86.7981   10.3987 C.2     1  UNL1        0.2419
     11 N          61.5921   85.3132   10.6075 N.2     1  UNL1       -0.0302
     12 C          62.4208   85.0365   11.8268 C.2     1  UNL1        0.3765
     13 N          62.8972   86.3504   12.3714 N.2     1  UNL1       -0.0256
     14 C          62.3629   87.4392   11.4888 C.2     1  UNL1        0.2907
     15 C          62.7206   83.6833   12.4007 C.ar    1  UNL1        0.0989
     16 C          62.2406   83.3293   13.7770 C.ar    1  UNL1        0.0085
     17 C          62.5404   81.9762   14.3508 C.ar    1  UNL1        0.0003
     18 C          63.3200   80.9772   13.5483 C.ar    1  UNL1        0.0009
     19 C          63.7999   81.3312   12.1719 C.ar    1  UNL1        0.0116
     20 C          63.5002   82.6843   11.5981 C.ar    1  UNL1        0.0651
     21 CL         63.9801   83.0384   10.2218 Cl      1  UNL1       -0.0820
     22 C          58.9048   90.2033    6.2304 C.ar    1  UNL1        0.0295
     23 C          57.4292   90.2997    5.9787 C.ar    1  UNL1        0.0070
     24 C          57.2136   91.2636    4.8498 C.ar    1  UNL1        0.0075
     25 C          58.5559   91.7629    4.4038 C.ar    1  UNL1        0.0354
     26 S          59.6011   91.1076    5.2570 S.2     1  UNL1       -0.0864
@<TRIPOS>BOND
     1     1     2    2
     2     2     3    1
     3     3     4    2
     4     4     5   ar
     5     5     6   ar
     6     6    22    1
     7    22    23   ar
     8    23    24   ar
     9    24    25   ar
    10    25    26   ar
    11     6     7   ar
    12     7     8   ar
    13     8     9   ar
    14     9    10    2
    15    10    11    1
    16    11    12    2
    17    12    15    1
    18    15    16   ar
    19    16    17   ar
    20    17    18   ar
    21    18    19   ar
    22    19    20   ar
    23    20    21    1
    24    12    13    1
    25    13    14    2
    26    14     2    1
    27     9     4   ar
    28    14    10    1
    29    26    22   ar
    30    20    15   ar
@<TRIPOS>MOLECULE
*****
 26 30 0 0 0
SMALL
GASTEIGER

@<TRIPOS>ATOM
      1 O          61.2692   89.2719   10.1257 O.2     1  UNL1       -0.2638
      2 C          61.9869   88.3843   11.0990 C.2     1  UNL1        0.3160
      3 N          61.6943   86.9135   11.1294 N.am    1  UNL1       -0.1720
      4 C          62.4120   86.0259   12.1026 C.ar    1  UNL1        0.0775
      5 C          62.1193   84.5550   12.1330 C.ar    1  UNL1        0.0172
      6 C          62.8370   83.6675   13.1062 C.ar    1  UNL1        0.0073
      7 C          63.8474   84.2508   14.0490 C.ar    1  UNL1        0.0007
      8 C          64.1401   85.7216   14.0186 C.ar    1  UNL1        0.0051
      9 C          63.4224   86.6092   13.0454 C.ar    1  UNL1        0.0623
     10 C          63.7150   88.0801   13.0150 C.2     1  UNL1        0.2419
     11 N          64.6523   88.9337   13.8167 N.2     1  UNL1       -0.0302
     12 C          64.5139   90.3488   13.3390 C.2     1  UNL1        0.3765
     13 N          63.4910   90.3698   12.2421 N.2     1  UNL1       -0.0256
     14 C          62.9973   88.9676   12.0418 C.2     1  UNL1        0.2907
     15 C          65.2662   91.5348   13.8658 C.ar    1  UNL1        0.0989
     16 C          65.5617   91.6446   15.3323 C.ar    1  UNL1        0.0085
     17 C          66.3140   92.8305   15.8591 C.ar    1  UNL1        0.0003
     18 C          66.7709   93.9067   14.9193 C.ar    1  UNL1        0.0009
     19 C          66.4754   93.7969   13.4528 C.ar    1  UNL1        0.0116
     20 C          65.7231   92.6110   12.9261 C.ar    1  UNL1        0.0651
     21 CL         65.4276   92.5012   11.4595 Cl      1  UNL1       -0.0820
     22 C          62.5444   82.1966   13.1366 C.ar    1  UNL1        0.0295
     23 C          63.0181   81.1825   12.1380 C.ar    1  UNL1        0.0070
     24 C          62.4931   79.8408   12.5552 C.ar    1  UNL1        0.0075
     25 C          61.6949   80.0256   13.8118 C.ar    1  UNL1        0.0354
     26 S          61.7266   81.4816   14.1710 S.2     1  UNL1       -0.0864
@<TRIPOS>BOND
     1     1     2    2
     2     2     3    1
     3     3     4    2
     4     4     5   ar
     5     5     6   ar
     6     6    22    1
     7    22    23   ar
     8    23    24   ar
     9    24    25   ar
    10    25    26   ar
    11     6     7   ar
    12     7     8   ar
    13     8     9   ar
    14     9    10    2
    15    10    11    1
    16    11    12    2
    17    12    15    1
    18    15    16   ar
    19    16    17   ar
    20    17    18   ar
    21    18    19   ar
    22    19    20   ar
    23    20    21    1
    24    12    13    1
    25    13    14    2
    26    14     2    1
    27     9     4   ar
    28    14    10    1
    29    26    22   ar
    30    20    15   ar
@<TRIPOS>MOLECULE
*****
 26 30 0 0 0
SMALL
GASTEIGER

@<TRIPOS>ATOM
      1 O          67.8619   94.1702   15.3921 O.2     1  UNL1       -0.2638
      2 C          66.9229   93.1955   14.7454 C.2     1  UNL1        0.3160
      3 N          66.4467   91.9945   15.5075 N.am    1  UNL1       -0.1720
      4 C          65.5076   91.0197   14.8608 C.ar    1  UNL1        0.0775
      5 C          65.0314   89.8187   15.6229 C.ar    1  UNL1        0.0172
      6 C          64.0924   88.8440   14.9762 C.ar    1  UNL1        0.0073
      7 C          63.6296   89.0703   13.5675 C.ar    1  UNL1        0.0007
      8 C          64.1058   90.2713   12.8054 C.ar    1  UNL1        0.0051
      9 C          65.0448   91.2460   13.4521 C.ar    1  UNL1        0.0623
     10 C          65.5211   92.4471   12.6900 C.2     1  UNL1        0.2419
     11 N          65.2382   92.9295   11.2982 N.2     1  UNL1       -0.0302
     12 C          66.0025   94.2025   11.0846 C.2     1  UNL1        0.3765
     13 N          66.7576   94.5067   12.3445 N.2     1  UNL1       -0.0256
     14 C          66.4601   93.4218   13.3366 C.2     1  UNL1        0.2907
     15 C          66.0102   95.0266    9.8312 C.ar    1  UNL1        0.0989
     16 C          64.9238   96.0318    9.5878 C.ar    1  UNL1        0.0085
     17 C          64.9316   96.8558    8.3345 C.ar    1  UNL1        0.0003
     18 C          66.0257   96.6746    7.3245 C.ar    1  UNL1        0.0009
     19 C          67.1121   95.6693    7.5679 C.ar    1  UNL1        0.0116
     20 C          67.1043   94.8453    8.8212 C.ar    1  UNL1        0.0651
     21 CL         68.1907   93.8400    9.0647 Cl      1  UNL1       -0.0820
     22 C          63.6162   87.6430   15.7383 C.ar    1  UNL1        0.0295
     23 C          62.8733   87.6631   17.0413 C.ar    1  UNL1        0.0070
     24 C          62.5972   86.2435   17.4394 C.ar    1  UNL1        0.0075
     25 C          63.1696   85.3460   16.3825 C.ar    1  UNL1        0.0354
     26 S          63.7993   86.2109   15.3312 S.2     1  UNL1       -0.0864
@<TRIPOS>BOND
     1     1     2    2
     2     2     3    1
     3     3     4    2
     4     4     5   ar
     5     5     6   ar
     6     6    22    1
     7    22    23   ar
     8    23    24   ar
     9    24    25   ar
    10    25    26   ar
    11     6     7   ar
    12     7     8   ar
    13     8     9   ar
    14     9    10    2
    15    10    11    1
    16    11    12    2
    17    12    15    1
    18    15    16   ar
    19    16    17   ar
    20    17    18   ar
    21    18    19   ar
    22    19    20   ar
    23    20    21    1
    24    12    13    1
    25    13    14    2
    26    14     2    1
    27     9     4   ar
    28    14    10    1
    29    26    22   ar
    30    20    15   ar
@<TRIPOS>MOLECULE
*****
 26 30 0 0 0
SMALL
GASTEIGER

@<TRIPOS>ATOM
      1 O          61.1780   87.4094    9.5181 O.2     1  UNL1       -0.2638
      2 C          62.0406   87.5146   10.7407 C.2     1  UNL1        0.3160
      3 N          62.6179   88.8404   11.1395 N.am    1  UNL1       -0.1720
      4 C          63.4805   88.9456   12.3622 C.ar    1  UNL1        0.0775
      5 C          64.0578   90.2713   12.7609 C.ar    1  UNL1        0.0172
      6 C          64.9204   90.3765   13.9836 C.ar    1  UNL1        0.0073
      7 C          65.2057   89.1559   14.8074 C.ar    1  UNL1        0.0007
      8 C          64.6284   87.8301   14.4086 C.ar    1  UNL1        0.0051
      9 C          63.7658   87.7250   13.1860 C.ar    1  UNL1        0.0623
     10 C          63.1885   86.3992   12.7872 C.2     1  UNL1        0.2419
     11 N          63.2948   85.0335   13.3984 N.2     1  UNL1       -0.0302
     12 C          62.4978   84.0843   12.5535 C.2     1  UNL1        0.3765
     13 N          61.8990   84.8633   11.4202 N.2     1  UNL1       -0.0256
     14 C          62.3259   86.2940   11.5646 C.2     1  UNL1        0.2907
     15 C          62.3293   82.6141   12.7990 C.ar    1  UNL1        0.0989
     16 C          61.5854   82.1364   14.0107 C.ar    1  UNL1        0.0085
     17 C          61.4169   80.6663   14.2561 C.ar    1  UNL1        0.0003
     18 C          61.9922   79.6738   13.2897 C.ar    1  UNL1        0.0009
     19 C          62.7361   80.1514   12.0779 C.ar    1  UNL1        0.0116
     20 C          62.9046   81.6216   11.8325 C.ar    1  UNL1        0.0651
     21 CL         63.6485   82.0993   10.6207 Cl      1  UNL1       -0.0820
     22 C          65.4977   91.7023   14.3824 C.ar    1  UNL1        0.0295
     23 C          65.6589   92.2076   15.7855 C.ar    1  UNL1        0.0070
     24 C          66.2760   93.5731   15.7184 C.ar    1  UNL1        0.0075
     25 C          66.4962   93.9118   14.2737 C.ar    1  UNL1        0.0354
     26 S          66.0152   92.7556   13.4481 S.2     1  UNL1       -0.0864
@<TRIPOS>BOND
     1     1     2    2
     2     2     3    1
     3     3     4    2
     4     4     5   ar
     5     5     6   ar
     6     6    22    1
     7    22    23   ar
     8    23    24   ar
     9    24    25   ar
    10    25    26   ar
    11     6     7   ar
    12     7     8   ar
    13     8     9   ar
    14     9    10    2
    15    10    11    1
    16    11    12    2
    17    12    15    1
    18    15    16   ar
    19    16    17   ar
    20    17    18   ar
    21    18    19   ar
    22    19    20   ar
    23    20    21    1
    24    12    13    1
    25    13    14    2
    26    14     2    1
    27     9     4   ar
    28    14    10    1
    29    26    22   ar
    30    20    15   ar
@<TRIPOS>MOLECULE
*****
 26 30 0 0 0
SMALL
GASTEIGER

@<TRIPOS>ATOM
      1 O          61.2917   87.1519    9.2335 O.2     1  UNL1       -0.2638
      2 C          62.0551   87.1020   10.5237 C.2     1  UNL1        0.3160
      3 N          62.4667   88.3753   11.2014 N.am    1  UNL1       -0.1720
      4 C          63.2302   88.3253   12.4917 C.ar    1  UNL1        0.0775
      5 C          63.6417   89.5986   13.1693 C.ar    1  UNL1        0.0172
      6 C          64.4051   89.5487   14.4595 C.ar    1  UNL1        0.0073
      7 C          64.7570   88.2254   15.0721 C.ar    1  UNL1        0.0007
      8 C          64.3454   86.9521   14.3944 C.ar    1  UNL1        0.0051
      9 C          63.5820   87.0021   13.1042 C.ar    1  UNL1        0.0623
     10 C          63.1704   85.7287   12.4264 C.2     1  UNL1        0.2419
     11 N          63.3735   84.2876   12.7894 N.2     1  UNL1       -0.0302
     12 C          62.7356   83.4468   11.7235 C.2     1  UNL1        0.3765
     13 N          62.1383   84.3684   10.7018 N.2     1  UNL1       -0.0256
     14 C          62.4070   85.7787   11.1362 C.2     1  UNL1        0.2907
     15 C          62.7012   81.9476   11.6859 C.ar    1  UNL1        0.0989
     16 C          63.0429   81.2211   10.4188 C.ar    1  UNL1        0.0085
     17 C          63.0084   79.7220   10.3813 C.ar    1  UNL1        0.0003
     18 C          62.6322   78.9494   11.6107 C.ar    1  UNL1        0.0009
     19 C          62.2905   79.6759   12.8778 C.ar    1  UNL1        0.0116
     20 C          62.3250   81.1750   12.9153 C.ar    1  UNL1        0.0651
     21 CL         61.9832   81.9016   14.1824 Cl      1  UNL1       -0.0820
     22 C          64.8167   90.8220   15.1373 C.ar    1  UNL1        0.0295
     23 C          64.1355   91.4543   16.3146 C.ar    1  UNL1        0.0070
     24 C          64.8796   92.7096   16.6616 C.ar    1  UNL1        0.0075
     25 C          66.0207   92.8533   15.6987 C.ar    1  UNL1        0.0354
     26 S          65.9819   91.6867   14.7566 S.2     1  UNL1       -0.0864
@<TRIPOS>BOND
     1     1     2    2
     2     2     3    1
     3     3     4    2
     4     4     5   ar
     5     5     6   ar
     6     6    22    1
     7    22    23   ar
     8    23    24   ar
     9    24    25   ar
    10    25    26   ar
    11     6     7   ar
    12     7     8   ar
    13     8     9   ar
    14     9    10    2
    15    10    11    1
    16    11    12    2
    17    12    15    1
    18    15    16   ar
    19    16    17   ar
    20    17    18   ar
    21    18    19   ar
    22    19    20   ar
    23    20    21    1
    24    12    13    1
    25    13    14    2
    26    14     2    1
    27     9     4   ar
    28    14    10    1
    29    26    22   ar
    30    20    15   ar
@<TRIPOS>MOLECULE
*****
 26 30 0 0 0
SMALL
GASTEIGER

@<TRIPOS>ATOM
      1 O          73.3250   78.8239   17.1219 O.2     1  UNL1       -0.2638
      2 C          73.0631   78.4688   15.6882 C.2     1  UNL1        0.3160
      3 N          72.9916   79.5483   14.6492 N.am    1  UNL1       -0.1720
      4 C          72.7297   79.1932   13.2155 C.ar    1  UNL1        0.0775
      5 C          72.6582   80.2727   12.1765 C.ar    1  UNL1        0.0172
      6 C          72.3963   79.9175   10.7429 C.ar    1  UNL1        0.0073
      7 C          72.2060   78.4830   10.3483 C.ar    1  UNL1        0.0007
      8 C          72.2775   77.4035   11.3873 C.ar    1  UNL1        0.0051
      9 C          72.5394   77.7586   12.8209 C.ar    1  UNL1        0.0623
     10 C          72.6109   76.6791   13.8600 C.2     1  UNL1        0.2419
     11 N          72.4647   75.1890   13.7708 N.2     1  UNL1       -0.0302
     12 C          72.6363   74.6231   15.1493 C.2     1  UNL1        0.3765
     13 N          72.8884   75.7635   16.0905 N.2     1  UNL1       -0.0256
     14 C          72.8728   77.0342   15.2936 C.2     1  UNL1        0.2907
     15 C          72.5676   73.1715   15.5214 C.ar    1  UNL1        0.0989
     16 C          73.6329   72.2257   15.0516 C.ar    1  UNL1        0.0085
     17 C          73.5642   70.7742   15.4237 C.ar    1  UNL1        0.0003
     18 C          72.4303   70.2686   16.2655 C.ar    1  UNL1        0.0009
     19 C          71.3651   71.2144   16.7352 C.ar    1  UNL1        0.0116
     20 C          71.4338   72.6658   16.3632 C.ar    1  UNL1        0.0651
     21 CL         70.3685   73.6117   16.8329 Cl      1  UNL1       -0.0820
     22 C          72.3248   80.9970    9.7038 C.ar    1  UNL1        0.0295
     23 C          72.2720   82.4727    9.9676 C.ar    1  UNL1        0.0070
     24 C          72.2081   83.1780    8.6453 C.ar    1  UNL1        0.0075
     25 C          72.2214   82.1382    7.5642 C.ar    1  UNL1        0.0354
     26 S          72.2935   80.7903    8.2184 S.2     1  UNL1       -0.0864
@<TRIPOS>BOND
     1     1     2    2
     2     2     3    1
     3     3     4    2
     4     4     5   ar
     5     5     6   ar
     6     6    22    1
     7    22    23   ar
     8    23    24   ar
     9    24    25   ar
    10    25    26   ar
    11     6     7   ar
    12     7     8   ar
    13     8     9   ar
    14     9    10    2
    15    10    11    1
    16    11    12    2
    17    12    15    1
    18    15    16   ar
    19    16    17   ar
    20    17    18   ar
    21    18    19   ar
    22    19    20   ar
    23    20    21    1
    24    12    13    1
    25    13    14    2
    26    14     2    1
    27     9     4   ar
    28    14    10    1
    29    26    22   ar
    30    20    15   ar
