@<TRIPOS>MOLECULE
*****
 26 28 0 0 0
SMALL
GASTEIGER

@<TRIPOS>ATOM
      1 C          63.6105   84.7542   15.3578 C.ar    1  UNL1       -0.0001
      2 C          62.8273   84.9208   16.6261 C.ar    1  UNL1       -0.0003
      3 C          62.6065   86.2903   17.1969 C.ar    1  UNL1       -0.0029
      4 C          63.1690   87.4932   16.4993 C.ar    1  UNL1       -0.0047
      5 C          63.9522   87.3265   15.2309 C.ar    1  UNL1       -0.0047
      6 C          64.1729   85.9570   14.6602 C.ar    1  UNL1       -0.0029
      7 C          64.3819   88.6876   14.7692 C.3     1  UNL1        0.1202
      8 N          63.8642   89.6953   15.7523 N.am    1  UNL1       -0.2711
      9 C          64.0615   91.1805   15.6790 C.2     1  UNL1        0.2306
     10 O          63.4819   92.0674   16.7408 O.2     1  UNL1       -0.2745
     11 C          63.1146   88.9571   16.8215 C.3     1  UNL1        0.1202
     12 C          62.6987   82.6559   14.1266 C.2     1  UNL1        0.0598
     13 C          63.8312   83.3847   14.7871 C.2     1  UNL1        0.0047
     14 O          63.4725   80.1933   14.4215 O.2     1  UNL1       -0.2681
     15 C          62.9194   81.2864   13.5559 C.2     1  UNL1        0.2679
     16 N          62.5871   81.0100   12.1195 N.am    1  UNL1       -0.1934
     17 O          62.8078   79.6405   11.5487 O.3     1  UNL1       -0.2949
     18 H          62.2241   81.7274   11.5514 H       1  UNL1        0.1825
     19 H          63.1671   79.0578   12.2360 H       1  UNL1        0.2414
     20 C          64.8385   91.7788   14.5440 C.3     1  UNL1        0.1116
     21 C          66.2908   92.1094   14.7212 C.ar    1  UNL1       -0.0131
     22 C          67.2693   91.8000   13.6272 C.ar    1  UNL1       -0.0038
     23 C          68.7216   92.1306   13.8044 C.ar    1  UNL1       -0.0003
     24 C          69.1955   92.7705   15.0756 C.ar    1  UNL1       -0.0000
     25 C          68.2170   93.0798   16.1696 C.ar    1  UNL1       -0.0003
     26 C          66.7646   92.7492   15.9924 C.ar    1  UNL1       -0.0038
@<TRIPOS>BOND
     1    14    15    2
     2    15    12    1
     3    12    13    2
     4    13     1    1
     5     1     2   ar
     6     2     3   ar
     7     3     4   ar
     8     4     5   ar
     9     5     6   ar
    10     5     7    1
    11     7     8    1
    12     8     9   am
    13     9    10    2
    14     9    20    1
    15    20    21    1
    16    21    22   ar
    17    22    23   ar
    18    23    24   ar
    19    24    25   ar
    20    25    26   ar
    21     8    11    1
    22    15    16   am
    23    16    17    1
    24     6     1   ar
    25    26    21   ar
    26    11     4    1
    27    16    18    1
    28    17    19    1
@<TRIPOS>MOLECULE
*****
 26 28 0 0 0
SMALL
GASTEIGER

@<TRIPOS>ATOM
      1 C          64.3671   90.2949   15.2210 C.ar    1  UNL1       -0.0001
      2 C          63.5649   90.1646   16.4818 C.ar    1  UNL1       -0.0003
      3 C          63.0901   88.8150   16.9324 C.ar    1  UNL1       -0.0029
      4 C          63.4174   87.5957   16.1224 C.ar    1  UNL1       -0.0047
      5 C          64.2196   87.7261   14.8617 C.ar    1  UNL1       -0.0047
      6 C          64.6944   89.0757   14.4110 C.ar    1  UNL1       -0.0029
      7 C          64.3866   86.3558   14.2746 C.3     1  UNL1        0.1202
      8 N          63.6875   85.3786   15.1726 N.am    1  UNL1       -0.2711
      9 C          63.6024   83.8954   14.9651 C.2     1  UNL1        0.2306
     10 O          62.8651   83.0410   15.9532 O.2     1  UNL1       -0.2745
     11 C          63.0886   86.1449   16.3146 C.3     1  UNL1        0.1202
     12 C          65.7195   91.7652   13.5599 C.2     1  UNL1        0.0598
     13 C          64.8419   91.6446   14.7704 C.2     1  UNL1        0.0047
     14 O          66.2705   94.2485   14.0884 O.2     1  UNL1       -0.2681
     15 C          66.1943   93.1148   13.1092 C.2     1  UNL1        0.2679
     16 N          66.5930   93.3306   11.6793 N.am    1  UNL1       -0.1934
     17 O          67.0678   94.6802   11.2287 O.3     1  UNL1       -0.2949
     18 H          66.5430   92.5865   11.0367 H       1  UNL1        0.1825
     19 H          67.0566   95.2942   11.9795 H       1  UNL1        0.2414
     20 C          64.2545   83.2667   13.7695 C.3     1  UNL1        0.1116
     21 C          63.8260   83.6613   12.3873 C.ar    1  UNL1       -0.0131
     22 C          62.7070   84.6426   12.2005 C.ar    1  UNL1       -0.0038
     23 C          62.2785   85.0373   10.8183 C.ar    1  UNL1       -0.0003
     24 C          62.9689   84.4506    9.6228 C.ar    1  UNL1       -0.0000
     25 C          64.0879   83.4693    9.8096 C.ar    1  UNL1       -0.0003
     26 C          64.5164   83.0746   11.1919 C.ar    1  UNL1       -0.0038
@<TRIPOS>BOND
     1    14    15    2
     2    15    12    1
     3    12    13    2
     4    13     1    1
     5     1     2   ar
     6     2     3   ar
     7     3     4   ar
     8     4     5   ar
     9     5     6   ar
    10     5     7    1
    11     7     8    1
    12     8     9   am
    13     9    10    2
    14     9    20    1
    15    20    21    1
    16    21    22   ar
    17    22    23   ar
    18    23    24   ar
    19    24    25   ar
    20    25    26   ar
    21     8    11    1
    22    15    16   am
    23    16    17    1
    24     6     1   ar
    25    26    21   ar
    26    11     4    1
    27    16    18    1
    28    17    19    1
@<TRIPOS>MOLECULE
*****
 26 28 0 0 0
SMALL
GASTEIGER

@<TRIPOS>ATOM
      1 C          62.3969   89.0727   10.8706 C.ar    1  UNL1       -0.0001
      2 C          62.7803   88.4197   12.1654 C.ar    1  UNL1       -0.0003
      3 C          63.7010   89.1244   13.1171 C.ar    1  UNL1       -0.0029
      4 C          64.2383   90.4821   12.7739 C.ar    1  UNL1       -0.0047
      5 C          63.8549   91.1351   11.4791 C.ar    1  UNL1       -0.0047
      6 C          62.9342   90.4304   10.5275 C.ar    1  UNL1       -0.0029
      7 C          64.5370   92.4695   11.4130 C.3     1  UNL1        0.1202
      8 N          65.3420   92.6411   12.6671 N.am    1  UNL1       -0.2711
      9 C          66.1838   93.8319   13.0184 C.2     1  UNL1        0.2306
     10 O          66.9367   93.8618   14.3154 O.2     1  UNL1       -0.2745
     11 C          65.1574   91.4129   13.5081 C.3     1  UNL1        0.1202
     12 C          60.5584   89.1615    9.0371 C.2     1  UNL1        0.0598
     13 C          61.4761   88.3679    9.9190 C.2     1  UNL1        0.0047
     14 O          59.1712   89.1512    6.8404 O.2     1  UNL1       -0.2681
     15 C          59.6376   88.4568    8.0854 C.2     1  UNL1        0.2679
     16 N          59.1834   87.0576    8.3789 N.am    1  UNL1       -0.1934
     17 O          58.2627   86.3529    7.4273 O.3     1  UNL1       -0.2949
     18 H          59.4896   86.6019    9.1961 H       1  UNL1        0.1825
     19 H          58.0599   86.9379    6.6806 H       1  UNL1        0.2414
     20 C          66.2727   94.9928   12.0727 C.3     1  UNL1        0.1116
     21 C          66.8141   94.7927   10.6882 C.ar    1  UNL1       -0.0131
     22 C          67.5564   93.5344   10.3478 C.ar    1  UNL1       -0.0038
     23 C          68.0978   93.3342    8.9634 C.ar    1  UNL1       -0.0003
     24 C          67.8970   94.3923    7.9193 C.ar    1  UNL1       -0.0000
     25 C          67.1547   95.6506    8.2597 C.ar    1  UNL1       -0.0003
     26 C          66.6133   95.8507    9.6442 C.ar    1  UNL1       -0.0038
@<TRIPOS>BOND
     1    14    15    2
     2    15    12    1
     3    12    13    2
     4    13     1    1
     5     1     2   ar
     6     2     3   ar
     7     3     4   ar
     8     4     5   ar
     9     5     6   ar
    10     5     7    1
    11     7     8    1
    12     8     9   am
    13     9    10    2
    14     9    20    1
    15    20    21    1
    16    21    22   ar
    17    22    23   ar
    18    23    24   ar
    19    24    25   ar
    20    25    26   ar
    21     8    11    1
    22    15    16   am
    23    16    17    1
    24     6     1   ar
    25    26    21   ar
    26    11     4    1
    27    16    18    1
    28    17    19    1
@<TRIPOS>MOLECULE
*****
 26 28 0 0 0
SMALL
GASTEIGER

@<TRIPOS>ATOM
      1 C          60.0976   88.3457    8.2324 C.ar    1  UNL1       -0.0001
      2 C          60.4357   86.8845    8.2574 C.ar    1  UNL1       -0.0003
      3 C          61.2933   86.3318    9.3570 C.ar    1  UNL1       -0.0029
      4 C          61.8128   87.2403   10.4315 C.ar    1  UNL1       -0.0047
      5 C          61.4748   88.7015   10.4065 C.ar    1  UNL1       -0.0047
      6 C          60.6172   89.2542    9.3069 C.ar    1  UNL1       -0.0029
      7 C          62.1265   89.3485   11.5926 C.3     1  UNL1        0.1202
      8 N          62.8673   88.2871   12.3507 N.am    1  UNL1       -0.2711
      9 C          63.6624   88.4925   13.6059 C.2     1  UNL1        0.2306
     10 O          64.3527   87.3298   14.2552 O.2     1  UNL1       -0.2745
     11 C          62.6734   86.9842   11.6331 C.3     1  UNL1        0.1202
     12 C          59.5240   90.2606    6.5729 C.2     1  UNL1        0.0598
     13 C          59.2400   88.8984    7.1328 C.2     1  UNL1        0.0047
     14 O          59.2975   91.5428    4.3247 O.2     1  UNL1       -0.2681
     15 C          58.6664   90.8133    5.4733 C.2     1  UNL1        0.2679
     16 N          57.1776   90.6365    5.5225 N.am    1  UNL1       -0.1934
     17 O          56.3200   91.1891    4.4229 O.3     1  UNL1       -0.2949
     18 H          56.7634   90.1577    6.2764 H       1  UNL1        0.1825
     19 H          56.8814   91.6273    3.7643 H       1  UNL1        0.2414
     20 C          63.7672   89.8607   14.2119 C.3     1  UNL1        0.1116
     21 C          64.7912   90.8306   13.7014 C.ar    1  UNL1       -0.0131
     22 C          64.5254   91.6117   12.4486 C.ar    1  UNL1       -0.0038
     23 C          65.5494   92.5816   11.9381 C.ar    1  UNL1       -0.0003
     24 C          66.8391   92.7706   12.6803 C.ar    1  UNL1       -0.0000
     25 C          67.1049   91.9895   13.9331 C.ar    1  UNL1       -0.0003
     26 C          66.0809   91.0195   14.4436 C.ar    1  UNL1       -0.0038
@<TRIPOS>BOND
     1    14    15    2
     2    15    12    1
     3    12    13    2
     4    13     1    1
     5     1     2   ar
     6     2     3   ar
     7     3     4   ar
     8     4     5   ar
     9     5     6   ar
    10     5     7    1
    11     7     8    1
    12     8     9   am
    13     9    10    2
    14     9    20    1
    15    20    21    1
    16    21    22   ar
    17    22    23   ar
    18    23    24   ar
    19    24    25   ar
    20    25    26   ar
    21     8    11    1
    22    15    16   am
    23    16    17    1
    24     6     1   ar
    25    26    21   ar
    26    11     4    1
    27    16    18    1
    28    17    19    1
@<TRIPOS>MOLECULE
*****
 26 28 0 0 0
SMALL
GASTEIGER

@<TRIPOS>ATOM
      1 C          64.7474   91.8613   12.5290 C.ar    1  UNL1       -0.0001
      2 C          64.4406   92.4698   11.1928 C.ar    1  UNL1       -0.0003
      3 C          63.6377   91.7015   10.1853 C.ar    1  UNL1       -0.0029
      4 C          63.1416   90.3246   10.5140 C.ar    1  UNL1       -0.0047
      5 C          63.4485   89.7161   11.8502 C.ar    1  UNL1       -0.0047
      6 C          64.2514   90.4844   12.8577 C.ar    1  UNL1       -0.0029
      7 C          62.8301   88.3500   11.8905 C.3     1  UNL1        0.1202
      8 N          62.1410   88.1143   10.5792 N.am    1  UNL1       -0.2711
      9 C          61.3910   86.8758   10.1873 C.2     1  UNL1        0.2306
     10 O          60.7503   86.7835    8.8342 O.2     1  UNL1       -0.2745
     11 C          62.3336   89.3347    9.7285 C.3     1  UNL1        0.1202
     12 C          66.6007   91.9316   14.3484 C.2     1  UNL1        0.0598
     13 C          65.5503   92.6297   13.5364 C.2     1  UNL1        0.0047
     14 O          66.8526   92.9373   16.7306 O.2     1  UNL1       -0.2681
     15 C          67.4036   92.6999   15.3558 C.2     1  UNL1        0.2679
     16 N          68.7576   93.2309   14.9885 N.am    1  UNL1       -0.1934
     17 O          69.5605   93.9993   15.9959 O.3     1  UNL1       -0.2949
     18 H          69.1193   93.0751   14.0862 H       1  UNL1        0.1825
     19 H          69.0630   94.0615   16.8263 H       1  UNL1        0.2414
     20 C          61.2818   85.7294   11.1486 C.3     1  UNL1        0.1116
     21 C          62.3909   84.7244   11.2464 C.ar    1  UNL1       -0.0131
     22 C          62.7720   84.1554   12.5809 C.ar    1  UNL1       -0.0038
     23 C          63.8811   83.1503   12.6787 C.ar    1  UNL1       -0.0003
     24 C          64.6093   82.7141   11.4419 C.ar    1  UNL1       -0.0000
     25 C          64.2282   83.2832   10.1074 C.ar    1  UNL1       -0.0003
     26 C          63.1191   84.2883   10.0096 C.ar    1  UNL1       -0.0038
@<TRIPOS>BOND
     1    14    15    2
     2    15    12    1
     3    12    13    2
     4    13     1    1
     5     1     2   ar
     6     2     3   ar
     7     3     4   ar
     8     4     5   ar
     9     5     6   ar
    10     5     7    1
    11     7     8    1
    12     8     9   am
    13     9    10    2
    14     9    20    1
    15    20    21    1
    16    21    22   ar
    17    22    23   ar
    18    23    24   ar
    19    24    25   ar
    20    25    26   ar
    21     8    11    1
    22    15    16   am
    23    16    17    1
    24     6     1   ar
    25    26    21   ar
    26    11     4    1
    27    16    18    1
    28    17    19    1
@<TRIPOS>MOLECULE
*****
 26 28 0 0 0
SMALL
GASTEIGER

@<TRIPOS>ATOM
      1 C          62.2578   88.6836   10.4960 C.ar    1  UNL1       -0.0001
      2 C          62.5113   88.0351   11.8245 C.ar    1  UNL1       -0.0003
      3 C          63.3523   88.7333   12.8517 C.ar    1  UNL1       -0.0029
      4 C          63.9398   90.0802   12.5503 C.ar    1  UNL1       -0.0047
      5 C          63.6863   90.7287   11.2218 C.ar    1  UNL1       -0.0047
      6 C          62.8453   90.0305   10.1946 C.ar    1  UNL1       -0.0029
      7 C          64.3923   92.0522   11.2098 C.3     1  UNL1        0.1202
      8 N          65.0822   92.2215   12.5309 N.am    1  UNL1       -0.2711
      9 C          65.9070   93.4023   12.9500 C.2     1  UNL1        0.2306
     10 O          66.5389   93.4310   14.3100 O.2     1  UNL1       -0.2745
     11 C          64.8025   91.0027   13.3594 C.3     1  UNL1        0.1202
     12 C          61.8431   86.6515    8.9313 C.2     1  UNL1        0.0598
     13 C          61.4168   87.9854    9.4688 C.2     1  UNL1        0.0047
     14 O          59.5341   86.2469    7.8111 O.2     1  UNL1       -0.2681
     15 C          61.0021   85.9532    7.9041 C.2     1  UNL1        0.2679
     16 N          61.6291   84.9612    6.9698 N.am    1  UNL1       -0.1934
     17 O          60.7881   84.2629    5.9426 O.3     1  UNL1       -0.2949
     18 H          62.5927   84.7684    7.0309 H       1  UNL1        0.1825
     19 H          59.8694   84.5650    6.0174 H       1  UNL1        0.2414
     20 C          66.0998   94.5544   12.0089 C.3     1  UNL1        0.1116
     21 C          66.7836   94.3401   10.6912 C.ar    1  UNL1       -0.0131
     22 C          66.6578   95.3671    9.6052 C.ar    1  UNL1       -0.0038
     23 C          67.3416   95.1528    8.2875 C.ar    1  UNL1       -0.0003
     24 C          68.1512   93.9115    8.0557 C.ar    1  UNL1       -0.0000
     25 C          68.2770   92.8845    9.1417 C.ar    1  UNL1       -0.0003
     26 C          67.5931   93.0988   10.4595 C.ar    1  UNL1       -0.0038
@<TRIPOS>BOND
     1    14    15    2
     2    15    12    1
     3    12    13    2
     4    13     1    1
     5     1     2   ar
     6     2     3   ar
     7     3     4   ar
     8     4     5   ar
     9     5     6   ar
    10     5     7    1
    11     7     8    1
    12     8     9   am
    13     9    10    2
    14     9    20    1
    15    20    21    1
    16    21    22   ar
    17    22    23   ar
    18    23    24   ar
    19    24    25   ar
    20    25    26   ar
    21     8    11    1
    22    15    16   am
    23    16    17    1
    24     6     1   ar
    25    26    21   ar
    26    11     4    1
    27    16    18    1
    28    17    19    1
@<TRIPOS>MOLECULE
*****
 26 28 0 0 0
SMALL
GASTEIGER

@<TRIPOS>ATOM
      1 C          62.7845   84.6194   12.1254 C.ar    1  UNL1       -0.0001
      2 C          62.1589   85.2422   10.9127 C.ar    1  UNL1       -0.0003
      3 C          62.1749   86.7323   10.7420 C.ar    1  UNL1       -0.0029
      4 C          62.8165   87.5998   11.7840 C.ar    1  UNL1       -0.0047
      5 C          63.4421   86.9771   12.9967 C.ar    1  UNL1       -0.0047
      6 C          63.4261   85.4869   13.1674 C.ar    1  UNL1       -0.0029
      7 C          63.9966   88.0792   13.8499 C.3     1  UNL1        0.1202
      8 N          63.7136   89.3830   13.1645 N.am    1  UNL1       -0.2711
      9 C          64.0933   90.7443   13.6675 C.2     1  UNL1        0.2306
     10 O          63.7413   91.9641   12.8688 O.2     1  UNL1       -0.2745
     11 C          62.9843   89.0867   11.8877 C.3     1  UNL1        0.1202
     12 C          62.8182   82.2359   11.0923 C.2     1  UNL1        0.0598
     13 C          62.7685   83.1293   12.2962 C.2     1  UNL1        0.0047
     14 O          62.7507   80.1489   12.6382 O.2     1  UNL1       -0.2681
     15 C          62.8022   80.7457   11.2630 C.2     1  UNL1        0.2679
     16 N          62.8377   79.8524   10.0585 N.am    1  UNL1       -0.1934
     17 O          62.8217   78.3622   10.2292 O.3     1  UNL1       -0.2949
     18 H          62.8714   80.2441    9.1559 H       1  UNL1        0.1825
     19 H          62.7876   78.1454   11.1741 H       1  UNL1        0.2414
     20 C          64.8250   90.8856   14.9693 C.3     1  UNL1        0.1116
     21 C          66.1405   91.6047   15.0161 C.ar    1  UNL1       -0.0131
     22 C          67.1372   91.4177   13.9109 C.ar    1  UNL1       -0.0038
     23 C          68.4527   92.1369   13.9576 C.ar    1  UNL1       -0.0003
     24 C          68.7715   93.0432   15.1096 C.ar    1  UNL1       -0.0000
     25 C          67.7748   93.2302   16.2149 C.ar    1  UNL1       -0.0003
     26 C          66.4592   92.5110   16.1681 C.ar    1  UNL1       -0.0038
@<TRIPOS>BOND
     1    14    15    2
     2    15    12    1
     3    12    13    2
     4    13     1    1
     5     1     2   ar
     6     2     3   ar
     7     3     4   ar
     8     4     5   ar
     9     5     6   ar
    10     5     7    1
    11     7     8    1
    12     8     9   am
    13     9    10    2
    14     9    20    1
    15    20    21    1
    16    21    22   ar
    17    22    23   ar
    18    23    24   ar
    19    24    25   ar
    20    25    26   ar
    21     8    11    1
    22    15    16   am
    23    16    17    1
    24     6     1   ar
    25    26    21   ar
    26    11     4    1
    27    16    18    1
    28    17    19    1
@<TRIPOS>MOLECULE
*****
 26 28 0 0 0
SMALL
GASTEIGER

@<TRIPOS>ATOM
      1 C          62.7868   84.9586   12.3703 C.ar    1  UNL1       -0.0001
      2 C          62.1904   85.5671   11.1358 C.ar    1  UNL1       -0.0003
      3 C          62.2612   87.0499   10.9212 C.ar    1  UNL1       -0.0029
      4 C          62.9284   87.9243   11.9412 C.ar    1  UNL1       -0.0047
      5 C          63.5247   87.3159   13.1757 C.ar    1  UNL1       -0.0047
      6 C          63.4539   85.8330   13.3903 C.ar    1  UNL1       -0.0029
      7 C          64.1142   88.4222   13.9995 C.3     1  UNL1        0.1202
      8 N          63.8822   89.7144   13.2740 N.am    1  UNL1       -0.2711
      9 C          64.3083   91.0755   13.7390 C.2     1  UNL1        0.2306
     10 O          64.0049   92.2829   12.9023 O.2     1  UNL1       -0.2745
     11 C          63.1493   89.4067   12.0019 C.3     1  UNL1        0.1202
     12 C          62.0801   82.9273   13.8279 C.2     1  UNL1        0.0598
     13 C          62.7160   83.4757   12.5849 C.2     1  UNL1        0.0047
     14 O          60.6784   80.7738   14.2122 O.2     1  UNL1       -0.2681
     15 C          62.0093   81.4444   14.0424 C.2     1  UNL1        0.2679
     16 N          63.2696   80.6320   14.0873 N.am    1  UNL1       -0.1934
     17 O          63.1988   79.1491   14.3018 O.3     1  UNL1       -0.2949
     18 H          64.1432   81.0721   13.9758 H       1  UNL1        0.1825
     19 H          62.2714   78.8794   14.3921 H       1  UNL1        0.2414
     20 C          65.0378   91.2290   15.0406 C.3     1  UNL1        0.1116
     21 C          66.4169   91.8184   15.0625 C.ar    1  UNL1       -0.0131
     22 C          66.8498   92.6713   16.2180 C.ar    1  UNL1       -0.0038
     23 C          68.2289   93.2608   16.2398 C.ar    1  UNL1       -0.0003
     24 C          69.1752   92.9973   15.1061 C.ar    1  UNL1       -0.0000
     25 C          68.7424   92.1444   13.9507 C.ar    1  UNL1       -0.0003
     26 C          67.3631   91.5550   13.9288 C.ar    1  UNL1       -0.0038
@<TRIPOS>BOND
     1    14    15    2
     2    15    12    1
     3    12    13    2
     4    13     1    1
     5     1     2   ar
     6     2     3   ar
     7     3     4   ar
     8     4     5   ar
     9     5     6   ar
    10     5     7    1
    11     7     8    1
    12     8     9   am
    13     9    10    2
    14     9    20    1
    15    20    21    1
    16    21    22   ar
    17    22    23   ar
    18    23    24   ar
    19    24    25   ar
    20    25    26   ar
    21     8    11    1
    22    15    16   am
    23    16    17    1
    24     6     1   ar
    25    26    21   ar
    26    11     4    1
    27    16    18    1
    28    17    19    1
@<TRIPOS>MOLECULE
*****
 26 28 0 0 0
SMALL
GASTEIGER

@<TRIPOS>ATOM
      1 C          63.6704   83.9508   13.8658 C.ar    1  UNL1       -0.0001
      2 C          64.1487   84.2296   15.2599 C.ar    1  UNL1       -0.0003
      3 C          64.3830   85.6431   15.7038 C.ar    1  UNL1       -0.0029
      4 C          64.1390   86.7778   14.7537 C.ar    1  UNL1       -0.0047
      5 C          63.6607   86.4990   13.3596 C.ar    1  UNL1       -0.0047
      6 C          63.4264   85.0855   12.9157 C.ar    1  UNL1       -0.0029
      7 C          63.5075   87.8122   12.6508 C.3     1  UNL1        0.1202
      8 N          63.8911   88.9025   13.6069 N.am    1  UNL1       -0.2711
      9 C          63.8855   90.3738   13.3146 C.2     1  UNL1        0.2306
     10 O          64.2969   91.3508   14.3758 O.2     1  UNL1       -0.2745
     11 C          64.2814   88.2632   14.9065 C.3     1  UNL1        0.1202
     12 C          63.1091   82.2462   11.9872 C.2     1  UNL1        0.0598
     13 C          63.4362   82.5373   13.4218 C.2     1  UNL1        0.0047
     14 O          62.5040   79.7826   12.5481 O.2     1  UNL1       -0.2681
     15 C          62.8748   80.8327   11.5433 C.2     1  UNL1        0.2679
     16 N          63.0114   80.4692   10.0943 N.am    1  UNL1       -0.1934
     17 O          62.7772   79.0557    9.6504 O.3     1  UNL1       -0.2949
     18 H          63.2548   81.1584    9.4348 H       1  UNL1        0.1825
     19 H          62.5481   78.5093   10.4184 H       1  UNL1        0.2414
     20 C          63.4685   90.8680   11.9612 C.3     1  UNL1        0.1116
     21 C          62.2346   90.3179   11.3093 C.ar    1  UNL1       -0.0131
     22 C          60.9343   90.3032   12.0570 C.ar    1  UNL1       -0.0038
     23 C          59.7005   89.7532   11.4052 C.ar    1  UNL1       -0.0003
     24 C          59.7668   89.2178   10.0055 C.ar    1  UNL1       -0.0000
     25 C          61.0671   89.2324    9.2578 C.ar    1  UNL1       -0.0003
     26 C          62.3010   89.7825    9.9097 C.ar    1  UNL1       -0.0038
@<TRIPOS>BOND
     1    14    15    2
     2    15    12    1
     3    12    13    2
     4    13     1    1
     5     1     2   ar
     6     2     3   ar
     7     3     4   ar
     8     4     5   ar
     9     5     6   ar
    10     5     7    1
    11     7     8    1
    12     8     9   am
    13     9    10    2
    14     9    20    1
    15    20    21    1
    16    21    22   ar
    17    22    23   ar
    18    23    24   ar
    19    24    25   ar
    20    25    26   ar
    21     8    11    1
    22    15    16   am
    23    16    17    1
    24     6     1   ar
    25    26    21   ar
    26    11     4    1
    27    16    18    1
    28    17    19    1
