@<TRIPOS>MOLECULE
*****
 34 37 0 0 0
SMALL
GASTEIGER

@<TRIPOS>ATOM
      1 C          61.9734   86.1629   11.1057 C.3     1  UNL1        0.0725
      2 C          62.9508   87.0059   11.8698 C.3     1  UNL1        0.0239
      3 C          63.1456   88.4472   11.5028 C.3     1  UNL1        0.0237
      4 C          62.3630   89.0455   10.3716 C.2     1  UNL1       -0.0441
      5 C          62.5579   90.4868   10.0045 C.2     1  UNL1       -0.0084
      6 C          61.3856   88.2025    9.6075 C.3     1  UNL1        0.0237
      7 C          61.1908   86.7612    9.9745 C.3     1  UNL1        0.0239
      8 C          63.5353   91.3298   10.7686 C.ar    1  UNL1        0.0024
      9 C          64.3778   92.3404   10.0483 C.ar    1  UNL1        0.0002
     10 C          65.3553   93.1834   10.8125 C.ar    1  UNL1        0.0031
     11 C          65.4902   93.0158   12.2970 C.ar    1  UNL1        0.0376
     12 C          64.6477   92.0052   13.0173 C.ar    1  UNL1        0.1472
     13 C          63.6703   91.1622   12.2532 C.ar    1  UNL1        0.0375
     14 O          64.7826   91.8376   14.5018 O.3     1  UNL1       -0.4361
     15 C          64.3258   90.5684   15.1579 C.ar    1  UNL1        0.2297
     16 C          64.7085   89.2415   14.5722 C.ar    1  UNL1        0.0581
     17 C          64.2517   87.9723   15.2283 C.ar    1  UNL1        0.0102
     18 C          63.4122   88.0300   16.4699 C.ar    1  UNL1        0.0907
     19 C          63.0294   89.3569   17.0555 C.ar    1  UNL1        0.1059
     20 N          63.4862   90.6261   16.3995 N.ar    1  UNL1       -0.2099
     21 C          62.9553   86.7608   17.1260 C.3     1  UNL1        0.4200
     22 F          62.4985   85.4916   17.7820 F       1  UNL1       -0.1658
     23 F          63.1664   86.0196   15.8392 F       1  UNL1       -0.1658
     24 F          62.7442   87.5019   18.4129 F       1  UNL1       -0.1658
     25 O          63.9401   84.7959   12.9122 O.2     1  UNL1       -0.2701
     26 C          62.7619   84.0381   12.3760 C.2     1  UNL1        0.2473
     27 N          61.7785   84.7216   11.4728 N.am    1  UNL1       -0.3024
     28 H          61.0052   84.2242   11.1209 H       1  UNL1        0.1497
     29 C          62.5670   82.5968   12.7430 C.ar    1  UNL1        0.0725
     30 C          62.8752   81.5204   11.7449 C.ar    1  UNL1        0.0077
     31 C          62.6804   80.0792   12.1120 C.ar    1  UNL1        0.0208
     32 C          62.1773   79.7143   13.4772 C.ar    1  UNL1        0.0989
     33 N          61.8691   80.7907   14.4753 N.ar    1  UNL1       -0.2422
     34 C          62.0640   82.2320   14.1083 C.ar    1  UNL1        0.1034
@<TRIPOS>BOND
     1    25    26    2
     2    26    27   am
     3    27     1    1
     4     1     2    1
     5     2     3    1
     6     3     4    1
     7     4     5    2
     8     5     8    1
     9     8     9   ar
    10     9    10   ar
    11    10    11   ar
    12    11    12   ar
    13    12    14    1
    14    14    15    1
    15    15    16   ar
    16    16    17   ar
    17    17    18   ar
    18    18    21    1
    19    21    22    1
    20    21    23    1
    21    21    24    1
    22    18    19   ar
    23    19    20   ar
    24    12    13   ar
    25     4     6    1
    26     6     7    1
    27    26    29    1
    28    29    30   ar
    29    30    31   ar
    30    31    32   ar
    31    32    33   ar
    32    33    34   ar
    33     7     1    1
    34    34    29   ar
    35    13     8   ar
    36    20    15   ar
    37    27    28    1
@<TRIPOS>MOLECULE
*****
 34 37 0 0 0
SMALL
GASTEIGER

@<TRIPOS>ATOM
      1 C          64.6361   91.4722   12.7856 C.3     1  UNL1        0.0725
      2 C          64.0630   90.1664   12.3207 C.3     1  UNL1        0.0239
      3 C          63.9509   89.0144   13.2747 C.3     1  UNL1        0.0237
      4 C          64.4121   89.1682   14.6938 C.2     1  UNL1       -0.0441
      5 C          64.3000   88.0161   15.6479 C.2     1  UNL1       -0.0084
      6 C          64.9852   90.4740   15.1587 C.3     1  UNL1        0.0237
      7 C          65.0973   91.6260   14.2047 C.3     1  UNL1        0.0239
      8 C          63.7269   86.7103   15.1829 C.ar    1  UNL1        0.0024
      9 C          63.1306   85.7570   16.1757 C.ar    1  UNL1        0.0002
     10 C          62.5574   84.4511   15.7107 C.ar    1  UNL1        0.0031
     11 C          62.5805   84.0986   14.2529 C.ar    1  UNL1        0.0376
     12 C          63.1768   85.0519   13.2601 C.ar    1  UNL1        0.1472
     13 C          63.7499   86.3577   13.7251 C.ar    1  UNL1        0.0375
     14 O          63.1999   84.6994   11.8023 O.3     1  UNL1       -0.4361
     15 C          62.3566   85.4708   10.8307 C.ar    1  UNL1        0.2297
     16 C          62.5837   85.3195    9.3557 C.ar    1  UNL1        0.0581
     17 C          61.7406   86.0908    8.3841 C.ar    1  UNL1        0.0102
     18 C          60.6704   87.0134    8.8874 C.ar    1  UNL1        0.0907
     19 C          60.4433   87.1647   10.3624 C.ar    1  UNL1        0.1059
     20 N          61.2864   86.3934   11.3340 N.ar    1  UNL1       -0.2099
     21 C          59.8271   87.7848    7.9158 C.3     1  UNL1        0.4200
     22 F          58.9840   88.5562    6.9442 F       1  UNL1       -0.1658
     23 F          60.4165   89.0676    8.4228 F       1  UNL1       -0.1658
     24 F          59.2378   86.5020    7.4088 F       1  UNL1       -0.1658
     25 O          67.3352   92.3856   11.8471 O.2     1  UNL1       -0.2701
     26 C          66.0977   93.0809   11.3623 C.2     1  UNL1        0.2473
     27 N          64.7482   92.6243   11.8315 N.am    1  UNL1       -0.3024
     28 H          63.9360   93.0807   11.5133 H       1  UNL1        0.1497
     29 C          66.2098   94.2330   10.4082 C.ar    1  UNL1        0.0725
     30 C          67.1459   94.1503    9.2391 C.ar    1  UNL1        0.0077
     31 C          67.2579   95.3024    8.2851 C.ar    1  UNL1        0.0208
     32 C          66.4338   96.5371    8.5002 C.ar    1  UNL1        0.0989
     33 N          65.4977   96.6198    9.6692 N.ar    1  UNL1       -0.2422
     34 C          65.3857   95.4678   10.6232 C.ar    1  UNL1        0.1034
@<TRIPOS>BOND
     1    25    26    2
     2    26    27   am
     3    27     1    1
     4     1     2    1
     5     2     3    1
     6     3     4    1
     7     4     5    2
     8     5     8    1
     9     8     9   ar
    10     9    10   ar
    11    10    11   ar
    12    11    12   ar
    13    12    14    1
    14    14    15    1
    15    15    16   ar
    16    16    17   ar
    17    17    18   ar
    18    18    21    1
    19    21    22    1
    20    21    23    1
    21    21    24    1
    22    18    19   ar
    23    19    20   ar
    24    12    13   ar
    25     4     6    1
    26     6     7    1
    27    26    29    1
    28    29    30   ar
    29    30    31   ar
    30    31    32   ar
    31    32    33   ar
    32    33    34   ar
    33     7     1    1
    34    34    29   ar
    35    13     8   ar
    36    20    15   ar
    37    27    28    1
@<TRIPOS>MOLECULE
*****
 34 37 0 0 0
SMALL
GASTEIGER

@<TRIPOS>ATOM
      1 C          63.5086   86.0871   15.7939 C.3     1  UNL1        0.0725
      2 C          64.2207   86.8995   14.7533 C.3     1  UNL1        0.0239
      3 C          64.3476   88.3849   14.9187 C.3     1  UNL1        0.0237
      4 C          63.7624   89.0579   16.1248 C.2     1  UNL1       -0.0441
      5 C          63.8893   90.5434   16.2901 C.2     1  UNL1       -0.0084
      6 C          63.0502   88.2456   17.1653 C.3     1  UNL1        0.0237
      7 C          62.9233   86.7602   16.9999 C.3     1  UNL1        0.0239
      8 C          64.6014   91.3558   15.2495 C.ar    1  UNL1        0.0024
      9 C          65.6990   92.2953   15.6530 C.ar    1  UNL1        0.0002
     10 C          66.4111   93.1077   14.6123 C.ar    1  UNL1        0.0031
     11 C          66.0258   92.9805   13.1683 C.ar    1  UNL1        0.0376
     12 C          64.9282   92.0410   12.7648 C.ar    1  UNL1        0.1472
     13 C          64.2161   91.2286   13.8054 C.ar    1  UNL1        0.0375
     14 O          64.5429   91.9138   11.3208 O.3     1  UNL1       -0.4361
     15 C          63.4928   90.9249   10.9090 C.ar    1  UNL1        0.2297
     16 C          63.3190   89.6504   11.6808 C.ar    1  UNL1        0.0581
     17 C          62.2690   88.6616   11.2691 C.ar    1  UNL1        0.0102
     18 C          61.3927   88.9471   10.0856 C.ar    1  UNL1        0.0907
     19 C          61.5665   90.2216    9.3139 C.ar    1  UNL1        0.1059
     20 N          62.6165   91.2105    9.7256 N.ar    1  UNL1       -0.2099
     21 C          60.3426   87.9583    9.6739 C.3     1  UNL1        0.4200
     22 F          59.2926   86.9694    9.2621 F       1  UNL1       -0.1658
     23 F          59.9712   88.8352    8.5151 F       1  UNL1       -0.1658
     24 F          60.7141   87.0813   10.8327 F       1  UNL1       -0.1658
     25 O          62.3348   84.9529   13.2768 O.2     1  UNL1       -0.2701
     26 C          62.7948   84.0345   14.3700 C.2     1  UNL1        0.2473
     27 N          63.3817   84.6016   15.6285 N.am    1  UNL1       -0.3024
     28 H          63.6835   83.9989   16.3460 H       1  UNL1        0.1497
     29 C          62.6678   82.5490   14.2046 C.ar    1  UNL1        0.0725
     30 C          61.3131   81.9054   14.2228 C.ar    1  UNL1        0.0077
     31 C          61.1862   80.4200   14.0574 C.ar    1  UNL1        0.0208
     32 C          62.4141   79.5782   13.8739 C.ar    1  UNL1        0.0989
     33 N          63.7689   80.2218   13.8557 N.ar    1  UNL1       -0.2422
     34 C          63.8957   81.7072   14.0211 C.ar    1  UNL1        0.1034
@<TRIPOS>BOND
     1    25    26    2
     2    26    27   am
     3    27     1    1
     4     1     2    1
     5     2     3    1
     6     3     4    1
     7     4     5    2
     8     5     8    1
     9     8     9   ar
    10     9    10   ar
    11    10    11   ar
    12    11    12   ar
    13    12    14    1
    14    14    15    1
    15    15    16   ar
    16    16    17   ar
    17    17    18   ar
    18    18    21    1
    19    21    22    1
    20    21    23    1
    21    21    24    1
    22    18    19   ar
    23    19    20   ar
    24    12    13   ar
    25     4     6    1
    26     6     7    1
    27    26    29    1
    28    29    30   ar
    29    30    31   ar
    30    31    32   ar
    31    32    33   ar
    32    33    34   ar
    33     7     1    1
    34    34    29   ar
    35    13     8   ar
    36    20    15   ar
    37    27    28    1
@<TRIPOS>MOLECULE
*****
 34 37 0 0 0
SMALL
GASTEIGER

@<TRIPOS>ATOM
      1 C          63.3217   84.4739   13.6904 C.3     1  UNL1        0.0725
      2 C          63.2742   85.6165   12.7199 C.3     1  UNL1        0.0239
      3 C          63.6481   86.9980   13.1689 C.3     1  UNL1        0.0237
      4 C          64.0697   87.2368   14.5886 C.2     1  UNL1       -0.0441
      5 C          64.4437   88.6183   15.0376 C.2     1  UNL1       -0.0084
      6 C          64.1172   86.0941   15.5591 C.3     1  UNL1        0.0237
      7 C          63.7433   84.7126   15.1101 C.3     1  UNL1        0.0239
      8 C          64.3961   89.7609   14.0670 C.ar    1  UNL1        0.0024
      9 C          65.4830   90.7947   14.0717 C.ar    1  UNL1        0.0002
     10 C          65.4354   91.9374   13.1011 C.ar    1  UNL1        0.0031
     11 C          64.3010   92.0463   12.1259 C.ar    1  UNL1        0.0376
     12 C          63.2141   91.0126   12.1212 C.ar    1  UNL1        0.1472
     13 C          63.2616   89.8699   13.0917 C.ar    1  UNL1        0.0375
     14 O          62.0796   91.1214   11.1459 O.3     1  UNL1       -0.4361
     15 C          61.6424   89.9167   10.3665 C.ar    1  UNL1        0.2297
     16 C          62.5408   88.7195   10.2696 C.ar    1  UNL1        0.0581
     17 C          62.1036   87.5148    9.4901 C.ar    1  UNL1        0.0102
     18 C          60.7680   87.5073    8.8076 C.ar    1  UNL1        0.0907
     19 C          59.8695   88.7046    8.9046 C.ar    1  UNL1        0.1059
     20 N          60.3067   89.9092    9.6840 N.ar    1  UNL1       -0.2099
     21 C          60.3307   86.3026    8.0282 C.3     1  UNL1        0.4200
     22 F          59.8934   85.0980    7.2488 F       1  UNL1       -0.1658
     23 F          58.8996   86.7276    8.1743 F       1  UNL1       -0.1658
     24 F          61.7618   85.8776    7.8821 F       1  UNL1       -0.1658
     25 O          64.5957   83.2956   11.2433 O.2     1  UNL1       -0.2701
     26 C          63.5847   82.5032   12.0179 C.2     1  UNL1        0.2473
     27 N          62.9477   83.0923   13.2414 N.am    1  UNL1       -0.3024
     28 H          62.2842   82.5722   13.7498 H       1  UNL1        0.1497
     29 C          63.2107   81.1217   11.5688 C.ar    1  UNL1        0.0725
     30 C          63.2660   80.7657   10.1128 C.ar    1  UNL1        0.0077
     31 C          62.8920   79.3842    9.6638 C.ar    1  UNL1        0.0208
     32 C          62.4628   78.3587   10.6709 C.ar    1  UNL1        0.0989
     33 N          62.4075   78.7148   12.1269 N.ar    1  UNL1       -0.2422
     34 C          62.7815   80.0963   12.5759 C.ar    1  UNL1        0.1034
@<TRIPOS>BOND
     1    25    26    2
     2    26    27   am
     3    27     1    1
     4     1     2    1
     5     2     3    1
     6     3     4    1
     7     4     5    2
     8     5     8    1
     9     8     9   ar
    10     9    10   ar
    11    10    11   ar
    12    11    12   ar
    13    12    14    1
    14    14    15    1
    15    15    16   ar
    16    16    17   ar
    17    17    18   ar
    18    18    21    1
    19    21    22    1
    20    21    23    1
    21    21    24    1
    22    18    19   ar
    23    19    20   ar
    24    12    13   ar
    25     4     6    1
    26     6     7    1
    27    26    29    1
    28    29    30   ar
    29    30    31   ar
    30    31    32   ar
    31    32    33   ar
    32    33    34   ar
    33     7     1    1
    34    34    29   ar
    35    13     8   ar
    36    20    15   ar
    37    27    28    1
@<TRIPOS>MOLECULE
*****
 34 37 0 0 0
SMALL
GASTEIGER

@<TRIPOS>ATOM
      1 C          64.5705   91.5304   13.1926 C.3     1  UNL1        0.0725
      2 C          64.2563   90.0816   12.9640 C.3     1  UNL1        0.0239
      3 C          63.9329   89.1918   14.1274 C.3     1  UNL1        0.0237
      4 C          63.9236   89.7506   15.5193 C.2     1  UNL1       -0.0441
      5 C          63.6001   88.8607   16.6827 C.2     1  UNL1       -0.0084
      6 C          64.2377   91.1994   15.7479 C.3     1  UNL1        0.0237
      7 C          64.5612   92.0893   14.5846 C.3     1  UNL1        0.0239
      8 C          63.2859   87.4119   16.4541 C.ar    1  UNL1        0.0024
      9 C          62.3827   86.6815   17.4032 C.ar    1  UNL1        0.0002
     10 C          62.0686   85.2326   17.1745 C.ar    1  UNL1        0.0031
     11 C          62.6576   84.5143   15.9968 C.ar    1  UNL1        0.0376
     12 C          63.5608   85.2447   15.0477 C.ar    1  UNL1        0.1472
     13 C          63.8749   86.6935   15.2763 C.ar    1  UNL1        0.0375
     14 O          64.1498   84.5264   13.8700 O.3     1  UNL1       -0.4361
     15 C          63.6018   84.7662   12.4944 C.ar    1  UNL1        0.2297
     16 C          63.9231   83.8123   11.3823 C.ar    1  UNL1        0.0581
     17 C          63.3752   84.0521   10.0067 C.ar    1  UNL1        0.0102
     18 C          62.5059   85.2457    9.7433 C.ar    1  UNL1        0.0907
     19 C          62.1846   86.1996   10.8554 C.ar    1  UNL1        0.1059
     20 N          62.7325   85.9599   12.2310 N.ar    1  UNL1       -0.2099
     21 C          61.9579   85.4856    8.3676 C.3     1  UNL1        0.4200
     22 F          61.4099   85.7254    6.9921 F       1  UNL1       -0.1658
     23 F          60.6192   85.8153    8.9585 F       1  UNL1       -0.1658
     24 F          63.2966   85.1558    7.7768 F       1  UNL1       -0.1658
     25 O          67.3072   92.7332   12.9395 O.2     1  UNL1       -0.2701
     26 C          66.2623   93.0217   11.9027 C.2     1  UNL1        0.2473
     27 N          64.8940   92.4204   12.0293 N.am    1  UNL1       -0.3024
     28 H          64.2082   92.6098   11.3487 H       1  UNL1        0.1497
     29 C          66.5858   93.9117   10.7393 C.ar    1  UNL1        0.0725
     30 C          66.0924   95.3280   10.7186 C.ar    1  UNL1        0.0077
     31 C          66.4159   96.2179    9.5552 C.ar    1  UNL1        0.0208
     32 C          67.2328   95.6915    8.4127 C.ar    1  UNL1        0.0989
     33 N          67.7262   94.2752    8.4334 N.ar    1  UNL1       -0.2422
     34 C          67.4027   93.3853    9.5968 C.ar    1  UNL1        0.1034
@<TRIPOS>BOND
     1    25    26    2
     2    26    27   am
     3    27     1    1
     4     1     2    1
     5     2     3    1
     6     3     4    1
     7     4     5    2
     8     5     8    1
     9     8     9   ar
    10     9    10   ar
    11    10    11   ar
    12    11    12   ar
    13    12    14    1
    14    14    15    1
    15    15    16   ar
    16    16    17   ar
    17    17    18   ar
    18    18    21    1
    19    21    22    1
    20    21    23    1
    21    21    24    1
    22    18    19   ar
    23    19    20   ar
    24    12    13   ar
    25     4     6    1
    26     6     7    1
    27    26    29    1
    28    29    30   ar
    29    30    31   ar
    30    31    32   ar
    31    32    33   ar
    32    33    34   ar
    33     7     1    1
    34    34    29   ar
    35    13     8   ar
    36    20    15   ar
    37    27    28    1
@<TRIPOS>MOLECULE
*****
 34 37 0 0 0
SMALL
GASTEIGER

@<TRIPOS>ATOM
      1 C          65.2889   91.9051   14.1436 C.3     1  UNL1        0.0725
      2 C          65.1450   90.4629   13.7571 C.3     1  UNL1        0.0239
      3 C          64.4814   89.4979   14.6943 C.3     1  UNL1        0.0237
      4 C          63.9618   89.9751   16.0180 C.2     1  UNL1       -0.0441
      5 C          63.2981   89.0100   16.9553 C.2     1  UNL1       -0.0084
      6 C          64.1057   91.4173   16.4045 C.3     1  UNL1        0.0237
      7 C          64.7693   92.3822   15.4673 C.3     1  UNL1        0.0239
      8 C          63.1542   87.5679   16.5688 C.ar    1  UNL1        0.0024
      9 C          62.2040   86.6818   17.3183 C.ar    1  UNL1        0.0002
     10 C          62.0601   85.2395   16.9318 C.ar    1  UNL1        0.0031
     11 C          62.8664   84.6835   15.7957 C.ar    1  UNL1        0.0376
     12 C          63.8167   85.5696   15.0462 C.ar    1  UNL1        0.1472
     13 C          63.9606   87.0118   15.4327 C.ar    1  UNL1        0.0375
     14 O          64.6230   85.0136   13.9101 O.3     1  UNL1       -0.4361
     15 C          64.1794   83.7581   13.2195 C.ar    1  UNL1        0.2297
     16 C          63.8273   83.7883   11.7617 C.ar    1  UNL1        0.0581
     17 C          63.3838   82.5329   11.0710 C.ar    1  UNL1        0.0102
     18 C          63.2923   81.2472   11.8382 C.ar    1  UNL1        0.0907
     19 C          63.6443   81.2169   13.2960 C.ar    1  UNL1        0.1059
     20 N          64.0879   82.4724   13.9866 N.ar    1  UNL1       -0.2099
     21 C          62.8487   79.9916   11.1475 C.3     1  UNL1        0.4200
     22 F          62.4051   78.7362   10.4569 F       1  UNL1       -0.1658
     23 F          63.2036   80.5958    9.8213 F       1  UNL1       -0.1658
     24 F          62.4938   79.3874   12.4738 F       1  UNL1       -0.1658
     25 O          64.4866   91.9820   11.2538 O.2     1  UNL1       -0.2701
     26 C          65.5514   92.9086   11.7615 C.2     1  UNL1        0.2473
     27 N          65.9526   92.8701   13.2063 N.am    1  UNL1       -0.3024
     28 H          66.6514   93.4783   13.5395 H       1  UNL1        0.1497
     29 C          66.2150   93.8736   10.8243 C.ar    1  UNL1        0.0725
     30 C          66.0405   95.3504   11.0209 C.ar    1  UNL1        0.0077
     31 C          66.7041   96.3153   10.0837 C.ar    1  UNL1        0.0208
     32 C          67.5422   95.8036    8.9498 C.ar    1  UNL1        0.0989
     33 N          67.7167   94.3268    8.7532 N.ar    1  UNL1       -0.2422
     34 C          67.0531   93.3619    9.6904 C.ar    1  UNL1        0.1034
@<TRIPOS>BOND
     1    25    26    2
     2    26    27   am
     3    27     1    1
     4     1     2    1
     5     2     3    1
     6     3     4    1
     7     4     5    2
     8     5     8    1
     9     8     9   ar
    10     9    10   ar
    11    10    11   ar
    12    11    12   ar
    13    12    14    1
    14    14    15    1
    15    15    16   ar
    16    16    17   ar
    17    17    18   ar
    18    18    21    1
    19    21    22    1
    20    21    23    1
    21    21    24    1
    22    18    19   ar
    23    19    20   ar
    24    12    13   ar
    25     4     6    1
    26     6     7    1
    27    26    29    1
    28    29    30   ar
    29    30    31   ar
    30    31    32   ar
    31    32    33   ar
    32    33    34   ar
    33     7     1    1
    34    34    29   ar
    35    13     8   ar
    36    20    15   ar
    37    27    28    1
@<TRIPOS>MOLECULE
*****
 34 37 0 0 0
SMALL
GASTEIGER

@<TRIPOS>ATOM
      1 C          60.1158   92.0704    3.9372 C.3     1  UNL1        0.0725
      2 C          61.0287   91.1942    4.7426 C.3     1  UNL1        0.0239
      3 C          60.4574   90.2423    5.7512 C.3     1  UNL1        0.0237
      4 C          58.9731   90.1666    5.9545 C.2     1  UNL1       -0.0441
      5 C          58.4018   89.2146    6.9632 C.2     1  UNL1       -0.0084
      6 C          58.0602   91.0428    5.1491 C.3     1  UNL1        0.0237
      7 C          58.6315   91.9947    4.1404 C.3     1  UNL1        0.0239
      8 C          59.3148   88.3383    7.7686 C.ar    1  UNL1        0.0024
      9 C          59.7978   87.0364    7.2014 C.ar    1  UNL1        0.0002
     10 C          60.7107   86.1601    8.0069 C.ar    1  UNL1        0.0031
     11 C          61.1406   86.5858    9.3794 C.ar    1  UNL1        0.0376
     12 C          60.6576   87.8878    9.9466 C.ar    1  UNL1        0.1472
     13 C          59.7447   88.7640    9.1412 C.ar    1  UNL1        0.0375
     14 O          61.0875   88.3135   11.3191 O.3     1  UNL1       -0.4361
     15 C          62.1451   89.3649   11.4815 C.ar    1  UNL1        0.2297
     16 C          62.5489   90.2096   10.3096 C.ar    1  UNL1        0.0581
     17 C          63.6064   91.2609   10.4718 C.ar    1  UNL1        0.0102
     18 C          64.2600   91.4676   11.8060 C.ar    1  UNL1        0.0907
     19 C          63.8561   90.6228   12.9779 C.ar    1  UNL1        0.1059
     20 N          62.7987   89.5715   12.8156 N.ar    1  UNL1       -0.2099
     21 C          65.3175   92.5190   11.9684 C.3     1  UNL1        0.4200
     22 F          66.3750   93.5703   12.1307 F       1  UNL1       -0.1658
     23 F          65.7791   91.8592   13.2339 F       1  UNL1       -0.1658
     24 F          64.8560   93.1787   10.7028 F       1  UNL1       -0.1658
     25 O          62.7076   91.4292    2.5692 O.2     1  UNL1       -0.2701
     26 C          61.9830   92.7018    2.2446 C.2     1  UNL1        0.2473
     27 N          60.6871   93.0224    2.9285 N.am    1  UNL1       -0.3024
     28 H          60.2115   93.8576    2.7154 H       1  UNL1        0.1497
     29 C          62.5543   93.6538    1.2358 C.ar    1  UNL1        0.0725
     30 C          64.0028   93.5647    0.8569 C.ar    1  UNL1        0.0077
     31 C          64.5741   94.5167   -0.1518 C.ar    1  UNL1        0.0208
     32 C          63.6967   95.5577   -0.7814 C.ar    1  UNL1        0.0989
     33 N          62.2482   95.6468   -0.4025 N.ar    1  UNL1       -0.2422
     34 C          61.6769   94.6949    0.6062 C.ar    1  UNL1        0.1034
@<TRIPOS>BOND
     1    25    26    2
     2    26    27   am
     3    27     1    1
     4     1     2    1
     5     2     3    1
     6     3     4    1
     7     4     5    2
     8     5     8    1
     9     8     9   ar
    10     9    10   ar
    11    10    11   ar
    12    11    12   ar
    13    12    14    1
    14    14    15    1
    15    15    16   ar
    16    16    17   ar
    17    17    18   ar
    18    18    21    1
    19    21    22    1
    20    21    23    1
    21    21    24    1
    22    18    19   ar
    23    19    20   ar
    24    12    13   ar
    25     4     6    1
    26     6     7    1
    27    26    29    1
    28    29    30   ar
    29    30    31   ar
    30    31    32   ar
    31    32    33   ar
    32    33    34   ar
    33     7     1    1
    34    34    29   ar
    35    13     8   ar
    36    20    15   ar
    37    27    28    1
@<TRIPOS>MOLECULE
*****
 34 37 0 0 0
SMALL
GASTEIGER

@<TRIPOS>ATOM
      1 C          63.3411   90.4642   12.4146 C.3     1  UNL1        0.0725
      2 C          63.4306   89.1410   11.7138 C.3     1  UNL1        0.0239
      3 C          62.3797   88.7468   10.7187 C.3     1  UNL1        0.0237
      4 C          61.2394   89.6757   10.4244 C.2     1  UNL1       -0.0441
      5 C          60.1885   89.2815    9.4293 C.2     1  UNL1       -0.0084
      6 C          61.1499   90.9989   11.1252 C.3     1  UNL1        0.0237
      7 C          62.2007   91.3931   12.1203 C.3     1  UNL1        0.0239
      8 C          60.2780   87.9583    8.7285 C.ar    1  UNL1        0.0024
      9 C          59.1887   87.5316    7.7897 C.ar    1  UNL1        0.0002
     10 C          59.2782   86.2084    7.0889 C.ar    1  UNL1        0.0031
     11 C          60.4570   85.3119    7.3269 C.ar    1  UNL1        0.0376
     12 C          61.5463   85.7386    8.2657 C.ar    1  UNL1        0.1472
     13 C          61.4568   87.0617    8.9665 C.ar    1  UNL1        0.0375
     14 O          62.7251   84.8421    8.5037 O.3     1  UNL1       -0.4361
     15 C          63.1081   84.4624    9.9035 C.ar    1  UNL1        0.2297
     16 C          64.0820   83.3459   10.1379 C.ar    1  UNL1        0.0581
     17 C          64.4650   82.9662   11.5375 C.ar    1  UNL1        0.0102
     18 C          63.8740   83.7029   12.7028 C.ar    1  UNL1        0.0907
     19 C          62.9001   84.8194   12.4684 C.ar    1  UNL1        0.1059
     20 N          62.5171   85.1991   11.0688 N.ar    1  UNL1       -0.2099
     21 C          64.2570   83.3233   14.1026 C.3     1  UNL1        0.4200
     22 F          64.6399   82.9435   15.5023 F       1  UNL1       -0.1658
     23 F          63.1829   82.2763   14.1124 F       1  UNL1       -0.1658
     24 F          65.3311   84.3702   14.0928 F       1  UNL1       -0.1658
     25 O          65.6121   92.2359   11.5756 O.2     1  UNL1       -0.2701
     26 C          65.5275   91.7443   12.9902 C.2     1  UNL1        0.2473
     27 N          64.3920   90.8585   13.4097 N.am    1  UNL1       -0.3024
     28 H          64.3365   90.5358   14.3382 H       1  UNL1        0.1497
     29 C          66.5784   92.1386   13.9853 C.ar    1  UNL1        0.0725
     30 C          66.1831   92.5285   15.3787 C.ar    1  UNL1        0.0077
     31 C          67.2340   92.9228   16.3738 C.ar    1  UNL1        0.0208
     32 C          68.6801   92.9271   15.9754 C.ar    1  UNL1        0.0989
     33 N          69.0754   92.5371   14.5820 N.ar    1  UNL1       -0.2422
     34 C          68.0245   92.1428   13.5869 C.ar    1  UNL1        0.1034
@<TRIPOS>BOND
     1    25    26    2
     2    26    27   am
     3    27     1    1
     4     1     2    1
     5     2     3    1
     6     3     4    1
     7     4     5    2
     8     5     8    1
     9     8     9   ar
    10     9    10   ar
    11    10    11   ar
    12    11    12   ar
    13    12    14    1
    14    14    15    1
    15    15    16   ar
    16    16    17   ar
    17    17    18   ar
    18    18    21    1
    19    21    22    1
    20    21    23    1
    21    21    24    1
    22    18    19   ar
    23    19    20   ar
    24    12    13   ar
    25     4     6    1
    26     6     7    1
    27    26    29    1
    28    29    30   ar
    29    30    31   ar
    30    31    32   ar
    31    32    33   ar
    32    33    34   ar
    33     7     1    1
    34    34    29   ar
    35    13     8   ar
    36    20    15   ar
    37    27    28    1
@<TRIPOS>MOLECULE
*****
 34 37 0 0 0
SMALL
GASTEIGER

@<TRIPOS>ATOM
      1 C          62.3527   85.9112   11.5091 C.3     1  UNL1        0.0725
      2 C          63.3267   86.4499   12.5146 C.3     1  UNL1        0.0239
      3 C          63.4552   87.9308   12.7155 C.3     1  UNL1        0.0237
      4 C          62.6097   88.8730   11.9108 C.2     1  UNL1       -0.0441
      5 C          62.7382   90.3539   12.1117 C.2     1  UNL1       -0.0084
      6 C          61.6357   88.3342   10.9053 C.3     1  UNL1        0.0237
      7 C          61.5072   86.8533   10.7045 C.3     1  UNL1        0.0239
      8 C          63.7122   90.8926   13.1172 C.ar    1  UNL1        0.0024
      9 C          63.5611   90.5452   14.5686 C.ar    1  UNL1        0.0002
     10 C          64.5352   91.0840   15.5741 C.ar    1  UNL1        0.0031
     11 C          65.6603   91.9701   15.1282 C.ar    1  UNL1        0.0376
     12 C          65.8114   92.3175   13.6769 C.ar    1  UNL1        0.1472
     13 C          64.8374   91.7788   12.6714 C.ar    1  UNL1        0.0375
     14 O          66.9365   93.2037   13.2310 O.3     1  UNL1       -0.4361
     15 C          66.8444   93.9321   11.9229 C.ar    1  UNL1        0.2297
     16 C          66.1911   95.2809   11.8600 C.ar    1  UNL1        0.0581
     17 C          66.0990   96.0093   10.5520 C.ar    1  UNL1        0.0102
     18 C          66.6601   95.3889    9.3069 C.ar    1  UNL1        0.0907
     19 C          67.3134   94.0401    9.3699 C.ar    1  UNL1        0.1059
     20 N          67.4055   93.3117   10.6779 N.ar    1  UNL1       -0.2099
     21 C          66.5679   96.1173    7.9989 C.3     1  UNL1        0.4200
     22 F          66.4758   96.8457    6.6909 F       1  UNL1       -0.1658
     23 F          65.1776   96.5618    8.3444 F       1  UNL1       -0.1658
     24 F          67.9582   95.6728    7.6534 F       1  UNL1       -0.1658
     25 O          64.1609   84.0334   12.9938 O.2     1  UNL1       -0.2701
     26 C          63.1282   83.4914   12.0505 C.2     1  UNL1        0.2473
     27 N          62.2241   84.4302   11.3082 N.am    1  UNL1       -0.3024
     28 H          61.5463   84.0744   10.6891 H       1  UNL1        0.1497
     29 C          62.9997   82.0104   11.8497 C.ar    1  UNL1        0.0725
     30 C          63.1758   81.4210   10.4816 C.ar    1  UNL1        0.0077
     31 C          63.0472   79.9401   10.2808 C.ar    1  UNL1        0.0208
     32 C          62.7426   79.0486   11.4480 C.ar    1  UNL1        0.0989
     33 N          62.5664   79.6380   12.8160 N.ar    1  UNL1       -0.2422
     34 C          62.6950   81.1189   13.0169 C.ar    1  UNL1        0.1034
@<TRIPOS>BOND
     1    25    26    2
     2    26    27   am
     3    27     1    1
     4     1     2    1
     5     2     3    1
     6     3     4    1
     7     4     5    2
     8     5     8    1
     9     8     9   ar
    10     9    10   ar
    11    10    11   ar
    12    11    12   ar
    13    12    14    1
    14    14    15    1
    15    15    16   ar
    16    16    17   ar
    17    17    18   ar
    18    18    21    1
    19    21    22    1
    20    21    23    1
    21    21    24    1
    22    18    19   ar
    23    19    20   ar
    24    12    13   ar
    25     4     6    1
    26     6     7    1
    27    26    29    1
    28    29    30   ar
    29    30    31   ar
    30    31    32   ar
    31    32    33   ar
    32    33    34   ar
    33     7     1    1
    34    34    29   ar
    35    13     8   ar
    36    20    15   ar
    37    27    28    1
