@<TRIPOS>MOLECULE
*****
 32 36 0 0 0
SMALL
GASTEIGER

@<TRIPOS>ATOM
      1 N          65.2429   92.3344   12.0441 N.3     1  UNL1       -0.2679
      2 C          66.3063   92.7160   11.0575 C.3     1  UNL1        0.0978
      3 C          67.3545   91.7189   10.6612 C.3     1  UNL1        0.0224
      4 C          68.4179   92.1006    9.6746 C.3     1  UNL1        0.0065
      5 C          68.4332   93.4795    9.0843 C.3     1  UNL1        0.0277
      6 C          67.3850   94.4766    9.4806 C.ar    1  UNL1       -0.0073
      7 C          67.4003   95.8555    8.8903 C.ar    1  UNL1       -0.0015
      8 C          66.3521   96.8527    9.2866 C.ar    1  UNL1        0.0203
      9 C          65.2887   96.4710   10.2732 C.ar    1  UNL1        0.0985
     10 N          65.2735   95.0921   10.8635 N.ar    1  UNL1       -0.2471
     11 C          66.3216   94.0950   10.4672 C.ar    1  UNL1        0.0695
     12 C          65.5577   92.2998   13.5104 C.3     1  UNL1        0.0886
     13 C          63.0603   86.7783   16.7546 C.ar    1  UNL1       -0.0003
     14 C          63.8675   86.3299   15.5726 C.ar    1  UNL1       -0.0003
     15 C          64.5284   87.3445   14.6873 C.ar    1  UNL1       -0.0045
     16 C          64.3821   88.8075   14.9841 C.ar    1  UNL1       -0.0234
     17 C          63.5750   89.2559   16.1662 C.ar    1  UNL1       -0.0103
     18 C          62.9140   88.2413   17.0514 C.ar    1  UNL1       -0.0032
     19 C          63.4286   90.7190   16.4631 C.3     1  UNL1        0.0953
     20 N          64.0896   91.7336   15.5778 N.3     1  UNL1       -0.2934
     21 C          64.8968   91.2852   14.3957 C.3     1  UNL1        0.0748
     22 C          65.0431   89.8222   14.0988 C.3     1  UNL1        0.0432
     23 H          64.7144   92.2795   16.1710 H       1  UNL1        0.1236
     24 C          63.8647   91.9872   11.5646 C.3     1  UNL1        0.0725
     25 C          63.6822   90.9606   10.4863 C.3     1  UNL1        0.0187
     26 C          62.5912   89.9377   10.6015 C.3     1  UNL1        0.0172
     27 C          61.3691   90.0441    9.7380 C.3     1  UNL1        0.0028
     28 C          60.2781   89.0211    9.8532 C.3     1  UNL1        0.0171
     29 C          60.4091   87.8918   10.8318 C.3     1  UNL1        0.0686
     30 N          61.6311   87.7855   11.6952 N.3     1  UNL1       -0.2975
     31 C          62.7221   88.8085   11.5800 C.3     1  UNL1        0.0686
     32 H          62.0548   86.8794   11.4955 H       1  UNL1        0.1232
@<TRIPOS>BOND
     1    13    14   ar
     2    14    15   ar
     3    15    16   ar
     4    16    17   ar
     5    17    18   ar
     6    17    19    1
     7    19    20    1
     8    20    21    1
     9    21    12    1
    10    12     1    1
    11     1    24    1
    12    24    25    1
    13    26    25    1
    14    26    27    1
    15    27    28    1
    16    28    29    1
    17    29    30    1
    18    30    31    1
    19     2     1    1
    20     2     3    1
    21     3     4    1
    22     4     5    1
    23     5     6    1
    24     6     7   ar
    25     7     8   ar
    26     8     9   ar
    27     9    10   ar
    28    10    11   ar
    29    21    22    1
    30    18    13   ar
    31    31    26    1
    32    11     2    1
    33    22    16    1
    34    11     6   ar
    35    20    23    1
    36    30    32    1
@<TRIPOS>MOLECULE
*****
 32 36 0 0 0
SMALL
GASTEIGER

@<TRIPOS>ATOM
      1 N          62.4446   87.3694   11.8465 N.3     1  UNL1       -0.2679
      2 C          62.7952   88.7924   11.5272 C.3     1  UNL1        0.0978
      3 C          62.3984   89.3846   10.2074 C.3     1  UNL1        0.0224
      4 C          62.7491   90.8077    9.8881 C.3     1  UNL1        0.0065
      5 C          63.4965   91.6386   10.8886 C.3     1  UNL1        0.0277
      6 C          63.8933   91.0464   12.2084 C.ar    1  UNL1       -0.0073
      7 C          64.6408   91.8772   13.2089 C.ar    1  UNL1       -0.0015
      8 C          65.0376   91.2850   14.5287 C.ar    1  UNL1        0.0203
      9 C          64.6869   89.8620   14.8480 C.ar    1  UNL1        0.0985
     10 N          63.9395   89.0312   13.8475 N.ar    1  UNL1       -0.2471
     11 C          63.5427   89.6234   12.5277 C.ar    1  UNL1        0.0695
     12 C          63.4393   86.4905   12.5452 C.3     1  UNL1        0.0886
     13 C          62.0911   79.7862   13.2412 C.ar    1  UNL1       -0.0003
     14 C          62.6731   80.0313   11.8807 C.ar    1  UNL1       -0.0003
     15 C          63.0591   81.4212   11.4693 C.ar    1  UNL1       -0.0045
     16 C          62.8632   82.5660   12.4186 C.ar    1  UNL1       -0.0234
     17 C          62.2812   82.3208   13.7791 C.ar    1  UNL1       -0.0103
     18 C          61.8952   80.9309   14.1905 C.ar    1  UNL1       -0.0032
     19 C          62.0853   83.4656   14.7285 C.3     1  UNL1        0.0953
     20 N          62.4713   84.8555   14.3171 N.3     1  UNL1       -0.2934
     21 C          63.0533   85.1006   12.9565 C.3     1  UNL1        0.0748
     22 C          63.2492   83.9559   12.0073 C.3     1  UNL1        0.0432
     23 H          63.1595   85.1828   14.9951 H       1  UNL1        0.1236
     24 C          61.0992   86.8252   11.4672 C.3     1  UNL1        0.0725
     25 C          60.5422   87.0883   10.0995 C.3     1  UNL1        0.0187
     26 C          61.0183   86.2817    8.9279 C.3     1  UNL1        0.0172
     27 C          62.4307   85.7782    8.8883 C.3     1  UNL1        0.0028
     28 C          62.9068   84.9715    7.7167 C.3     1  UNL1        0.0171
     29 C          61.9704   84.6685    6.5846 C.3     1  UNL1        0.0686
     30 N          60.5581   85.1720    6.6243 N.3     1  UNL1       -0.2975
     31 C          60.0820   85.9786    7.7959 C.3     1  UNL1        0.0686
     32 H          59.9520   84.3538    6.5644 H       1  UNL1        0.1232
@<TRIPOS>BOND
     1    13    14   ar
     2    14    15   ar
     3    15    16   ar
     4    16    17   ar
     5    17    18   ar
     6    17    19    1
     7    19    20    1
     8    20    21    1
     9    21    12    1
    10    12     1    1
    11     1    24    1
    12    24    25    1
    13    26    25    1
    14    26    27    1
    15    27    28    1
    16    28    29    1
    17    29    30    1
    18    30    31    1
    19     2     1    1
    20     2     3    1
    21     3     4    1
    22     4     5    1
    23     5     6    1
    24     6     7   ar
    25     7     8   ar
    26     8     9   ar
    27     9    10   ar
    28    10    11   ar
    29    21    22    1
    30    18    13   ar
    31    31    26    1
    32    11     2    1
    33    22    16    1
    34    11     6   ar
    35    20    23    1
    36    30    32    1
@<TRIPOS>MOLECULE
*****
 32 36 0 0 0
SMALL
GASTEIGER

@<TRIPOS>ATOM
      1 N          63.5408   88.7861   13.5581 N.3     1  UNL1       -0.2679
      2 C          63.0164   89.1623   12.2041 C.3     1  UNL1        0.0978
      3 C          63.1327   90.5777   11.7214 C.3     1  UNL1        0.0224
      4 C          62.6082   90.9539   10.3673 C.3     1  UNL1        0.0065
      5 C          61.9674   89.9146    9.4959 C.3     1  UNL1        0.0277
      6 C          61.8512   88.4991    9.9786 C.ar    1  UNL1       -0.0073
      7 C          61.2104   87.4598    9.1073 C.ar    1  UNL1       -0.0015
      8 C          61.0941   86.0444    9.5899 C.ar    1  UNL1        0.0203
      9 C          61.6186   85.6682   10.9439 C.ar    1  UNL1        0.0985
     10 N          62.2593   86.7075   11.8153 N.ar    1  UNL1       -0.2471
     11 C          62.3756   88.1229   11.3326 C.ar    1  UNL1        0.0695
     12 C          63.3370   89.7077   14.7240 C.3     1  UNL1        0.0886
     13 C          68.9706   93.5561   15.5621 C.ar    1  UNL1       -0.0003
     14 C          69.1859   92.6137   14.4152 C.ar    1  UNL1       -0.0003
     15 C          68.1022   91.6555   14.0182 C.ar    1  UNL1       -0.0045
     16 C          66.8032   91.6398   14.7681 C.ar    1  UNL1       -0.0234
     17 C          66.5879   92.5821   15.9150 C.ar    1  UNL1       -0.0103
     18 C          67.6716   93.5403   16.3120 C.ar    1  UNL1       -0.0032
     19 C          65.2889   92.5664   16.6650 C.3     1  UNL1        0.0953
     20 N          64.2053   91.6083   16.2680 N.3     1  UNL1       -0.2934
     21 C          64.4206   90.6658   15.1210 C.3     1  UNL1        0.0748
     22 C          65.7196   90.6816   14.3711 C.3     1  UNL1        0.0432
     23 H          63.3855   92.1698   16.0377 H       1  UNL1        0.1236
     24 C          64.2691   87.4883   13.7463 C.3     1  UNL1        0.0725
     25 C          63.9451   86.6095   14.9179 C.3     1  UNL1        0.0187
     26 C          63.7220   85.1402   14.7143 C.3     1  UNL1        0.0172
     27 C          64.3961   84.4296   13.5782 C.3     1  UNL1        0.0028
     28 C          64.1731   82.9603   13.3746 C.3     1  UNL1        0.0171
     29 C          63.2758   82.2017   14.3071 C.3     1  UNL1        0.0686
     30 N          62.6017   82.9123   15.4431 N.3     1  UNL1       -0.2975
     31 C          62.8248   84.3816   15.6467 C.3     1  UNL1        0.0686
     32 H          62.9011   82.4475   16.3003 H       1  UNL1        0.1232
@<TRIPOS>BOND
     1    13    14   ar
     2    14    15   ar
     3    15    16   ar
     4    16    17   ar
     5    17    18   ar
     6    17    19    1
     7    19    20    1
     8    20    21    1
     9    21    12    1
    10    12     1    1
    11     1    24    1
    12    24    25    1
    13    26    25    1
    14    26    27    1
    15    27    28    1
    16    28    29    1
    17    29    30    1
    18    30    31    1
    19     2     1    1
    20     2     3    1
    21     3     4    1
    22     4     5    1
    23     5     6    1
    24     6     7   ar
    25     7     8   ar
    26     8     9   ar
    27     9    10   ar
    28    10    11   ar
    29    21    22    1
    30    18    13   ar
    31    31    26    1
    32    11     2    1
    33    22    16    1
    34    11     6   ar
    35    20    23    1
    36    30    32    1
@<TRIPOS>MOLECULE
*****
 32 36 0 0 0
SMALL
GASTEIGER

@<TRIPOS>ATOM
      1 N          62.7584   89.8925   12.8301 N.3     1  UNL1       -0.2679
      2 C          63.7278   90.9177   12.3211 C.3     1  UNL1        0.0978
      3 C          63.7931   91.2252   10.8544 C.3     1  UNL1        0.0224
      4 C          64.7626   92.2505   10.3454 C.3     1  UNL1        0.0065
      5 C          65.6667   92.9683   11.3031 C.3     1  UNL1        0.0277
      6 C          65.6014   92.6608   12.7698 C.ar    1  UNL1       -0.0073
      7 C          66.5056   93.3786   13.7276 C.ar    1  UNL1       -0.0015
      8 C          66.4403   93.0712   15.1943 C.ar    1  UNL1        0.0203
      9 C          65.4709   92.0459   15.7032 C.ar    1  UNL1        0.0985
     10 N          64.5668   91.3282   14.7455 N.ar    1  UNL1       -0.2471
     11 C          64.6320   91.6356   13.2788 C.ar    1  UNL1        0.0695
     12 C          61.3874   89.7934   12.2295 C.3     1  UNL1        0.0886
     13 C          61.4638   85.1301    7.1800 C.ar    1  UNL1       -0.0003
     14 C          62.7842   85.1053    7.8912 C.ar    1  UNL1       -0.0003
     15 C          63.0330   86.0330    9.0434 C.ar    1  UNL1       -0.0045
     16 C          61.9614   86.9855    9.4843 C.ar    1  UNL1       -0.0234
     17 C          60.6410   87.0103    8.7731 C.ar    1  UNL1       -0.0103
     18 C          60.3922   86.0825    7.6209 C.ar    1  UNL1       -0.0032
     19 C          59.5693   87.9628    9.2140 C.3     1  UNL1        0.0953
     20 N          59.8181   88.8905   10.3661 N.3     1  UNL1       -0.2934
     21 C          61.1386   88.8657   11.0774 C.3     1  UNL1        0.0748
     22 C          62.2102   87.9132   10.6365 C.3     1  UNL1        0.0432
     23 H          59.1032   88.6898   11.0654 H       1  UNL1        0.1236
     24 C          63.1599   88.9664   13.9396 C.3     1  UNL1        0.0725
     25 C          64.2516   87.9615   13.7197 C.3     1  UNL1        0.0187
     26 C          64.0078   86.5118   14.0177 C.3     1  UNL1        0.0172
     27 C          63.3036   85.6479   13.0137 C.3     1  UNL1        0.0028
     28 C          63.0598   84.1982   13.3117 C.3     1  UNL1        0.0171
     29 C          63.5200   83.6123   14.6136 C.3     1  UNL1        0.0686
     30 N          64.2241   84.4762   15.6175 N.3     1  UNL1       -0.2975
     31 C          64.4680   85.9260   15.3196 C.3     1  UNL1        0.0686
     32 H          65.1369   84.0519   15.7824 H       1  UNL1        0.1232
@<TRIPOS>BOND
     1    13    14   ar
     2    14    15   ar
     3    15    16   ar
     4    16    17   ar
     5    17    18   ar
     6    17    19    1
     7    19    20    1
     8    20    21    1
     9    21    12    1
    10    12     1    1
    11     1    24    1
    12    24    25    1
    13    26    25    1
    14    26    27    1
    15    27    28    1
    16    28    29    1
    17    29    30    1
    18    30    31    1
    19     2     1    1
    20     2     3    1
    21     3     4    1
    22     4     5    1
    23     5     6    1
    24     6     7   ar
    25     7     8   ar
    26     8     9   ar
    27     9    10   ar
    28    10    11   ar
    29    21    22    1
    30    18    13   ar
    31    31    26    1
    32    11     2    1
    33    22    16    1
    34    11     6   ar
    35    20    23    1
    36    30    32    1
@<TRIPOS>MOLECULE
*****
 32 36 0 0 0
SMALL
GASTEIGER

@<TRIPOS>ATOM
      1 N          63.8210   89.9630   13.5914 N.3     1  UNL1       -0.2679
      2 C          64.7376   91.1093   13.9006 C.3     1  UNL1        0.0978
      3 C          65.2453   91.3079   15.2981 C.3     1  UNL1        0.0224
      4 C          66.1620   92.4543   15.6072 C.3     1  UNL1        0.0065
      5 C          66.5710   93.4021   14.5190 C.3     1  UNL1        0.0277
      6 C          66.0633   93.2036   13.1215 C.ar    1  UNL1       -0.0073
      7 C          66.4723   94.1514   12.0333 C.ar    1  UNL1       -0.0015
      8 C          65.9646   93.9529   10.6358 C.ar    1  UNL1        0.0203
      9 C          65.0480   92.8065   10.3266 C.ar    1  UNL1        0.0985
     10 N          64.6390   91.8587   11.4149 N.ar    1  UNL1       -0.2471
     11 C          65.1467   92.0572   12.8123 C.ar    1  UNL1        0.0695
     12 C          62.3655   90.2157   13.3309 C.3     1  UNL1        0.0886
     13 C          60.2519   86.8306    7.7341 C.ar    1  UNL1       -0.0003
     14 C          61.3297   86.0364    8.4105 C.ar    1  UNL1       -0.0003
     15 C          61.9680   86.5546    9.6651 C.ar    1  UNL1       -0.0045
     16 C          61.5285   87.8670   10.2434 C.ar    1  UNL1       -0.0234
     17 C          60.4506   88.6611    9.5670 C.ar    1  UNL1       -0.0103
     18 C          59.8123   88.1429    8.3124 C.ar    1  UNL1       -0.0032
     19 C          60.0110   89.9736   10.1453 C.3     1  UNL1        0.0953
     20 N          60.6493   90.4918   11.3999 N.3     1  UNL1       -0.2934
     21 C          61.7272   89.6975   12.0763 C.3     1  UNL1        0.0748
     22 C          62.1668   88.3852   11.4980 C.3     1  UNL1        0.0432
     23 H          59.9011   90.6135   12.0824 H       1  UNL1        0.1236
     24 C          64.3598   88.5640   13.5428 C.3     1  UNL1        0.0725
     25 C          64.2375   87.6711   14.7418 C.3     1  UNL1        0.0187
     26 C          64.1006   86.1882   14.5619 C.3     1  UNL1        0.0172
     27 C          63.6113   85.6331   13.2571 C.3     1  UNL1        0.0028
     28 C          63.4744   84.1502   13.0771 C.3     1  UNL1        0.0171
     29 C          63.8268   83.2225   14.2020 C.3     1  UNL1        0.0686
     30 N          64.3161   83.7776   15.5067 N.3     1  UNL1       -0.2975
     31 C          64.4530   85.2605   15.6866 C.3     1  UNL1        0.0686
     32 H          65.2387   83.3747   15.6706 H       1  UNL1        0.1232
@<TRIPOS>BOND
     1    13    14   ar
     2    14    15   ar
     3    15    16   ar
     4    16    17   ar
     5    17    18   ar
     6    17    19    1
     7    19    20    1
     8    20    21    1
     9    21    12    1
    10    12     1    1
    11     1    24    1
    12    24    25    1
    13    26    25    1
    14    26    27    1
    15    27    28    1
    16    28    29    1
    17    29    30    1
    18    30    31    1
    19     2     1    1
    20     2     3    1
    21     3     4    1
    22     4     5    1
    23     5     6    1
    24     6     7   ar
    25     7     8   ar
    26     8     9   ar
    27     9    10   ar
    28    10    11   ar
    29    21    22    1
    30    18    13   ar
    31    31    26    1
    32    11     2    1
    33    22    16    1
    34    11     6   ar
    35    20    23    1
    36    30    32    1
@<TRIPOS>MOLECULE
*****
 32 36 0 0 0
SMALL
GASTEIGER

@<TRIPOS>ATOM
      1 N          63.3548   90.8832   12.9138 N.3     1  UNL1       -0.2679
      2 C          64.5723   91.6813   12.5525 C.3     1  UNL1        0.0978
      3 C          64.8836   91.9641   11.1126 C.3     1  UNL1        0.0224
      4 C          66.1012   92.7623   10.7513 C.3     1  UNL1        0.0065
      5 C          67.0074   93.2776   11.8298 C.3     1  UNL1        0.0277
      6 C          66.6961   92.9949   13.2696 C.ar    1  UNL1       -0.0073
      7 C          67.6023   93.5102   14.3481 C.ar    1  UNL1       -0.0015
      8 C          67.2910   93.2274   15.7879 C.ar    1  UNL1        0.0203
      9 C          66.0735   92.4293   16.1493 C.ar    1  UNL1        0.0985
     10 N          65.1673   91.9139   15.0708 N.ar    1  UNL1       -0.2471
     11 C          65.4786   92.1967   13.6310 C.ar    1  UNL1        0.0695
     12 C          62.1656   90.8737   11.9995 C.3     1  UNL1        0.0886
     13 C          59.9218   86.0444    7.6529 C.ar    1  UNL1       -0.0003
     14 C          59.2935   87.3583    7.2940 C.ar    1  UNL1       -0.0003
     15 C          59.6166   88.5869    8.0915 C.ar    1  UNL1       -0.0045
     16 C          60.5680   88.5017    9.2480 C.ar    1  UNL1       -0.0234
     17 C          61.1964   87.1878    9.6069 C.ar    1  UNL1       -0.0103
     18 C          60.8733   85.9592    8.8094 C.ar    1  UNL1       -0.0032
     19 C          62.1478   87.1025   10.7634 C.3     1  UNL1        0.0953
     20 N          62.4709   88.3312   11.5610 N.3     1  UNL1       -0.2934
     21 C          61.8425   89.6451   11.2020 C.3     1  UNL1        0.0748
     22 C          60.8911   89.7303   10.0455 C.3     1  UNL1        0.0432
     23 H          63.4808   88.4623   11.5036 H       1  UNL1        0.1236
     24 C          63.3264   90.0945   14.1894 C.3     1  UNL1        0.0725
     25 C          64.2961   88.9690   14.3971 C.3     1  UNL1        0.0187
     26 C          63.9514   87.8442   15.3276 C.3     1  UNL1        0.0172
     27 C          63.1531   88.1151   16.5684 C.3     1  UNL1        0.0028
     28 C          62.8084   86.9903   17.4989 C.3     1  UNL1        0.0171
     29 C          63.2621   85.5945   17.1887 C.3     1  UNL1        0.0686
     30 N          64.0604   85.3237   15.9481 N.3     1  UNL1       -0.2975
     31 C          64.4050   86.4485   15.0175 C.3     1  UNL1        0.0686
     32 H          63.5343   84.6410   15.4026 H       1  UNL1        0.1232
@<TRIPOS>BOND
     1    13    14   ar
     2    14    15   ar
     3    15    16   ar
     4    16    17   ar
     5    17    18   ar
     6    17    19    1
     7    19    20    1
     8    20    21    1
     9    21    12    1
    10    12     1    1
    11     1    24    1
    12    24    25    1
    13    26    25    1
    14    26    27    1
    15    27    28    1
    16    28    29    1
    17    29    30    1
    18    30    31    1
    19     2     1    1
    20     2     3    1
    21     3     4    1
    22     4     5    1
    23     5     6    1
    24     6     7   ar
    25     7     8   ar
    26     8     9   ar
    27     9    10   ar
    28    10    11   ar
    29    21    22    1
    30    18    13   ar
    31    31    26    1
    32    11     2    1
    33    22    16    1
    34    11     6   ar
    35    20    23    1
    36    30    32    1
@<TRIPOS>MOLECULE
*****
 32 36 0 0 0
SMALL
GASTEIGER

@<TRIPOS>ATOM
      1 N          62.3900   89.3156   12.2770 N.3     1  UNL1       -0.2679
      2 C          63.2870   90.0890   13.1973 C.3     1  UNL1        0.0978
      3 C          63.2816   89.7988   14.6690 C.3     1  UNL1        0.0224
      4 C          64.1787   90.5723   15.5893 C.3     1  UNL1        0.0065
      5 C          65.0813   91.6359   15.0380 C.3     1  UNL1        0.0277
      6 C          65.0868   91.9261   13.5663 C.ar    1  UNL1       -0.0073
      7 C          65.9894   92.9897   13.0150 C.ar    1  UNL1       -0.0015
      8 C          65.9949   93.2799   11.5434 C.ar    1  UNL1        0.0203
      9 C          65.0978   92.5065   10.6230 C.ar    1  UNL1        0.0985
     10 N          64.1952   91.4429   11.1744 N.ar    1  UNL1       -0.2471
     11 C          64.1897   91.1527   12.6460 C.ar    1  UNL1        0.0695
     12 C          62.9167   88.1126   11.5521 C.3     1  UNL1        0.0886
     13 C          63.2187   81.6321   13.8239 C.ar    1  UNL1       -0.0003
     14 C          62.6353   81.6413   12.4421 C.ar    1  UNL1       -0.0003
     15 C          62.4582   82.9392   11.7114 C.ar    1  UNL1       -0.0045
     16 C          62.8645   84.2280   12.3625 C.ar    1  UNL1       -0.0234
     17 C          63.4480   84.2188   13.7443 C.ar    1  UNL1       -0.0103
     18 C          63.6251   82.9208   14.4750 C.ar    1  UNL1       -0.0032
     19 C          63.8544   85.5076   14.3954 C.3     1  UNL1        0.0953
     20 N          63.6773   86.8055   13.6647 N.3     1  UNL1       -0.2934
     21 C          63.0938   86.8147   12.2828 C.3     1  UNL1        0.0748
     22 C          62.6874   85.5259   11.6317 C.3     1  UNL1        0.0432
     23 H          64.6005   87.2339   13.5974 H       1  UNL1        0.1236
     24 C          60.9661   89.7452   12.0816 C.3     1  UNL1        0.0725
     25 C          60.4993   90.2026   10.7315 C.3     1  UNL1        0.0187
     26 C          60.1006   89.1947    9.6946 C.3     1  UNL1        0.0172
     27 C          59.8385   89.6332    8.2842 C.3     1  UNL1        0.0028
     28 C          59.4397   88.6253    7.2473 C.3     1  UNL1        0.0171
     29 C          59.3031   87.1790    7.6208 C.3     1  UNL1        0.0686
     30 N          59.5651   86.7405    9.0311 N.3     1  UNL1       -0.2975
     31 C          59.9639   87.7484   10.0680 C.3     1  UNL1        0.0686
     32 H          60.3133   86.0485    8.9901 H       1  UNL1        0.1232
@<TRIPOS>BOND
     1    13    14   ar
     2    14    15   ar
     3    15    16   ar
     4    16    17   ar
     5    17    18   ar
     6    17    19    1
     7    19    20    1
     8    20    21    1
     9    21    12    1
    10    12     1    1
    11     1    24    1
    12    24    25    1
    13    26    25    1
    14    26    27    1
    15    27    28    1
    16    28    29    1
    17    29    30    1
    18    30    31    1
    19     2     1    1
    20     2     3    1
    21     3     4    1
    22     4     5    1
    23     5     6    1
    24     6     7   ar
    25     7     8   ar
    26     8     9   ar
    27     9    10   ar
    28    10    11   ar
    29    21    22    1
    30    18    13   ar
    31    31    26    1
    32    11     2    1
    33    22    16    1
    34    11     6   ar
    35    20    23    1
    36    30    32    1
@<TRIPOS>MOLECULE
*****
 32 36 0 0 0
SMALL
GASTEIGER

@<TRIPOS>ATOM
      1 N          63.3957   90.5484   11.6686 N.3     1  UNL1       -0.2679
      2 C          64.4285   91.6356   11.7022 C.3     1  UNL1        0.0978
      3 C          64.8347   92.3237   10.4328 C.3     1  UNL1        0.0224
      4 C          65.8676   93.4110   10.4665 C.3     1  UNL1        0.0065
      5 C          66.4942   93.8101   11.7696 C.3     1  UNL1        0.0277
      6 C          66.0880   93.1219   13.0390 C.ar    1  UNL1       -0.0073
      7 C          66.7146   93.5209   14.3421 C.ar    1  UNL1       -0.0015
      8 C          66.3084   92.8328   15.6115 C.ar    1  UNL1        0.0203
      9 C          65.2755   91.7456   15.5779 C.ar    1  UNL1        0.0985
     10 N          64.6489   91.3465   14.2748 N.ar    1  UNL1       -0.2471
     11 C          65.0552   92.0347   13.0054 C.ar    1  UNL1        0.0695
     12 C          62.9404   89.9065   12.9456 C.3     1  UNL1        0.0886
     13 C          64.0497   83.1305   13.2700 C.ar    1  UNL1       -0.0003
     14 C          63.2206   83.4348   12.0576 C.ar    1  UNL1       -0.0003
     15 C          62.8329   84.8509   11.7503 C.ar    1  UNL1       -0.0045
     16 C          63.2743   85.9626   12.6553 C.ar    1  UNL1       -0.0234
     17 C          64.1034   85.6583   13.8677 C.ar    1  UNL1       -0.0103
     18 C          64.4911   84.2422   14.1751 C.ar    1  UNL1       -0.0032
     19 C          64.5449   86.7700   14.7728 C.3     1  UNL1        0.0953
     20 N          64.1573   88.1861   14.4655 N.3     1  UNL1       -0.2934
     21 C          63.3281   88.4904   13.2530 C.3     1  UNL1        0.0748
     22 C          62.8867   87.3787   12.3480 C.3     1  UNL1        0.0432
     23 H          65.0244   88.7145   14.3694 H       1  UNL1        0.1236
     24 C          62.8180   90.1030   10.3579 C.3     1  UNL1        0.0725
     25 C          61.3306   90.0177   10.1841 C.3     1  UNL1        0.0187
     26 C          60.7311   88.8928    9.3933 C.3     1  UNL1        0.0172
     27 C          59.8413   89.1898    8.2228 C.3     1  UNL1        0.0028
     28 C          59.2418   88.0649    7.4320 C.3     1  UNL1        0.0171
     29 C          59.5322   86.6431    7.8118 C.3     1  UNL1        0.0686
     30 N          60.4220   86.3462    8.9823 N.3     1  UNL1       -0.2975
     31 C          61.0214   87.4710    9.7730 C.3     1  UNL1        0.0686
     32 H          61.1991   85.7888    8.6275 H       1  UNL1        0.1232
@<TRIPOS>BOND
     1    13    14   ar
     2    14    15   ar
     3    15    16   ar
     4    16    17   ar
     5    17    18   ar
     6    17    19    1
     7    19    20    1
     8    20    21    1
     9    21    12    1
    10    12     1    1
    11     1    24    1
    12    24    25    1
    13    26    25    1
    14    26    27    1
    15    27    28    1
    16    28    29    1
    17    29    30    1
    18    30    31    1
    19     2     1    1
    20     2     3    1
    21     3     4    1
    22     4     5    1
    23     5     6    1
    24     6     7   ar
    25     7     8   ar
    26     8     9   ar
    27     9    10   ar
    28    10    11   ar
    29    21    22    1
    30    18    13   ar
    31    31    26    1
    32    11     2    1
    33    22    16    1
    34    11     6   ar
    35    20    23    1
    36    30    32    1
@<TRIPOS>MOLECULE
*****
 32 36 0 0 0
SMALL
GASTEIGER

@<TRIPOS>ATOM
      1 N          62.5009   86.5008   11.4790 N.3     1  UNL1       -0.2679
      2 C          62.3060   86.0153   10.0732 C.3     1  UNL1        0.0978
      3 C          63.2708   85.0327    9.4785 C.3     1  UNL1        0.0224
      4 C          63.0758   84.5471    8.0727 C.3     1  UNL1        0.0065
      5 C          61.9161   85.0443    7.2616 C.3     1  UNL1        0.0277
      6 C          60.9513   86.0269    7.8562 C.ar    1  UNL1       -0.0073
      7 C          59.7916   86.5240    7.0451 C.ar    1  UNL1       -0.0015
      8 C          58.8268   87.5066    7.6398 C.ar    1  UNL1        0.0203
      9 C          59.0217   87.9921    9.0456 C.ar    1  UNL1        0.0985
     10 N          60.1814   87.4950    9.8567 N.ar    1  UNL1       -0.2471
     11 C          61.1462   86.5124    9.2620 C.ar    1  UNL1        0.0695
     12 C          61.9142   87.8132   11.9073 C.3     1  UNL1        0.0886
     13 C          66.1964   93.0142   13.2717 C.ar    1  UNL1       -0.0003
     14 C          66.1806   92.0722   14.4388 C.ar    1  UNL1       -0.0003
     15 C          65.3210   90.8435   14.3993 C.ar    1  UNL1       -0.0045
     16 C          64.4772   90.5570   13.1928 C.ar    1  UNL1       -0.0234
     17 C          64.4930   91.4991   12.0257 C.ar    1  UNL1       -0.0103
     18 C          65.3526   92.7277   12.0651 C.ar    1  UNL1       -0.0032
     19 C          63.6491   91.2126   10.8190 C.3     1  UNL1        0.0953
     20 N          62.7895   89.9839   10.7796 N.3     1  UNL1       -0.2934
     21 C          62.7738   89.0418   11.9468 C.3     1  UNL1        0.0748
     22 C          63.6176   89.3284   13.1533 C.3     1  UNL1        0.0432
     23 H          63.0870   89.4424    9.9680 H       1  UNL1        0.1236
     24 C          63.2825   85.6740   12.4564 C.3     1  UNL1        0.0725
     25 C          62.5655   84.8629   13.4946 C.3     1  UNL1        0.0187
     26 C          62.5699   83.3652   13.4112 C.3     1  UNL1        0.0172
     27 C          62.7815   82.6883   12.0894 C.3     1  UNL1        0.0028
     28 C          62.7859   81.1906   12.0060 C.3     1  UNL1        0.0171
     29 C          62.5787   80.3698   13.2444 C.3     1  UNL1        0.0686
     30 N          62.3671   81.0468   14.5661 N.3     1  UNL1       -0.2975
     31 C          62.3627   82.5444   14.6495 C.3     1  UNL1        0.0686
     32 H          63.1077   80.7195   15.1864 H       1  UNL1        0.1232
@<TRIPOS>BOND
     1    13    14   ar
     2    14    15   ar
     3    15    16   ar
     4    16    17   ar
     5    17    18   ar
     6    17    19    1
     7    19    20    1
     8    20    21    1
     9    21    12    1
    10    12     1    1
    11     1    24    1
    12    24    25    1
    13    26    25    1
    14    26    27    1
    15    27    28    1
    16    28    29    1
    17    29    30    1
    18    30    31    1
    19     2     1    1
    20     2     3    1
    21     3     4    1
    22     4     5    1
    23     5     6    1
    24     6     7   ar
    25     7     8   ar
    26     8     9   ar
    27     9    10   ar
    28    10    11   ar
    29    21    22    1
    30    18    13   ar
    31    31    26    1
    32    11     2    1
    33    22    16    1
    34    11     6   ar
    35    20    23    1
    36    30    32    1
