@<TRIPOS>MOLECULE
*****
 34 38 0 0 0
SMALL
GASTEIGER

@<TRIPOS>ATOM
      1 N          62.6462   85.3816   10.1968 N.3     1  UNL1       -0.2672
      2 C          62.7612   85.9359   11.5859 C.3     1  UNL1        0.0898
      3 C          62.5084   87.3933   11.8351 C.3     1  UNL1        0.0899
      4 N          62.1405   88.2963   10.6952 N.3     1  UNL1       -0.2665
      5 C          62.0256   87.7420    9.3062 C.3     1  UNL1        0.0899
      6 C          62.2784   86.2846    9.0570 C.3     1  UNL1        0.0898
      7 C          62.8991   83.9242    9.9476 C.3     1  UNL1        0.1201
      8 C          64.2952   83.3812   10.0255 C.3     1  UNL1        0.2226
      9 O          64.7457   82.6434   11.2513 O.3     1  UNL1       -0.4739
     10 C          63.2171   85.9773   17.0650 C.3     1  UNL1        0.0521
     11 C          63.3534   85.0637   15.8831 C.ar    1  UNL1        0.0593
     12 C          64.3369   85.3842   14.7969 C.ar    1  UNL1        0.0148
     13 C          64.4732   84.4706   13.6150 C.ar    1  UNL1        0.0057
     14 C          63.6260   83.2365   13.5194 C.ar    1  UNL1        0.0516
     15 C          63.7622   82.3229   12.3376 C.ar    1  UNL1        0.1400
     16 C          62.9150   81.0888   12.2420 C.ar    1  UNL1        0.0370
     17 C          61.9315   80.7682   13.3283 C.ar    1  UNL1        0.0047
     18 C          61.7952   81.6818   14.5101 C.ar    1  UNL1        0.0193
     19 C          62.6425   82.9160   14.6057 C.ar    1  UNL1        0.0838
     20 N          62.5062   83.8296   15.7875 N.ar    1  UNL1       -0.2496
     21 C          61.8877   89.7537   10.9444 C.3     1  UNL1        0.1015
     22 C          63.0162   90.6504   11.3598 C.ar    1  UNL1        0.0228
     23 C          63.7596   91.4470   10.3290 C.ar    1  UNL1        0.0025
     24 C          64.8881   92.3436   10.7444 C.ar    1  UNL1        0.0381
     25 C          65.2731   92.4436   12.1907 C.ar    1  UNL1        0.1550
     26 C          64.5297   91.6470   13.2215 C.ar    1  UNL1        0.1156
     27 C          63.4013   90.7504   12.8061 C.ar    1  UNL1        0.1540
     28 F          62.6578   89.9538   13.8370 F       1  UNL1       -0.2030
     29 N          64.9148   91.7471   14.6678 N.am    1  UNL1       -0.2494
     30 C          64.1713   90.9505   15.6987 C.3     1  UNL1        0.1203
     31 C          66.0432   92.6437   15.0832 C.2     1  UNL1        0.2740
     32 O          66.4282   92.7437   16.5295 O.2     1  UNL1       -0.2705
     33 C          66.7867   93.4404   14.0524 C.3     1  UNL1        0.2900
     34 O          66.4016   93.3403   12.6061 O.3     1  UNL1       -0.4643
@<TRIPOS>BOND
     1    10    11    1
     2    11    12   ar
     3    12    13   ar
     4    13    14   ar
     5    14    15   ar
     6    15     9    1
     7     9     8    1
     8     8     7    1
     9     7     1    1
    10     1     2    1
    11     2     3    1
    12     3     4    1
    13     4    21    1
    14    21    22    1
    15    22    23   ar
    16    23    24   ar
    17    24    25   ar
    18    25    26   ar
    19    26    27   ar
    20    27    28    1
    21    26    29    1
    22    29    30    1
    23    29    31   am
    24    31    32    2
    25    31    33    1
    26    33    34    1
    27     4     5    1
    28     5     6    1
    29    15    16   ar
    30    16    17   ar
    31    17    18   ar
    32    18    19   ar
    33    19    20   ar
    34    20    11   ar
    35    19    14   ar
    36     6     1    1
    37    27    22   ar
    38    34    25    1
@<TRIPOS>MOLECULE
*****
 34 38 0 0 0
SMALL
GASTEIGER

@<TRIPOS>ATOM
      1 N          63.8138   84.9105   15.6504 N.3     1  UNL1       -0.2672
      2 C          63.0403   85.6542   16.6986 C.3     1  UNL1        0.0898
      3 C          62.9927   87.1532   16.6732 C.3     1  UNL1        0.0899
      4 N          63.7187   87.9085   15.5996 N.3     1  UNL1       -0.2665
      5 C          64.4921   87.1648   14.5515 C.3     1  UNL1        0.0899
      6 C          64.5397   85.6658   14.5769 C.3     1  UNL1        0.0898
      7 C          63.8613   83.4114   15.6759 C.3     1  UNL1        0.1201
      8 C          63.3145   82.6240   14.5221 C.3     1  UNL1        0.2226
      9 O          62.4070   83.2840   13.5267 O.3     1  UNL1       -0.4739
     10 C          61.2175   88.4337    9.1318 C.3     1  UNL1        0.0521
     11 C          61.6306   87.1998    9.8779 C.ar    1  UNL1        0.0593
     12 C          61.1676   86.9859   11.2885 C.ar    1  UNL1        0.0148
     13 C          61.5807   85.7520   12.0346 C.ar    1  UNL1        0.0057
     14 C          62.4569   84.7318   11.3700 C.ar    1  UNL1        0.0516
     15 C          62.8700   83.4979   12.1161 C.ar    1  UNL1        0.1400
     16 C          63.7462   82.4777   11.4516 C.ar    1  UNL1        0.0370
     17 C          64.2092   82.6915   10.0409 C.ar    1  UNL1        0.0047
     18 C          63.7961   83.9255    9.2948 C.ar    1  UNL1        0.0193
     19 C          62.9199   84.9457    9.9594 C.ar    1  UNL1        0.0838
     20 N          62.5068   86.1796    9.2134 N.ar    1  UNL1       -0.2496
     21 C          63.6711   89.4076   15.5742 C.3     1  UNL1        0.1015
     22 C          63.8466   90.1416   14.2778 C.ar    1  UNL1        0.0228
     23 C          63.0721   89.7179   13.0652 C.ar    1  UNL1        0.0025
     24 C          63.2475   90.4519   11.7690 C.ar    1  UNL1        0.0381
     25 C          64.1975   91.6097   11.6853 C.ar    1  UNL1        0.1550
     26 C          64.9721   92.0335   12.8979 C.ar    1  UNL1        0.1156
     27 C          64.7966   91.2994   14.1942 C.ar    1  UNL1        0.1540
     28 F          65.5711   91.7232   15.4069 F       1  UNL1       -0.2030
     29 N          65.9221   93.1913   12.8143 N.am    1  UNL1       -0.2494
     30 C          66.6966   93.6150   14.0269 C.3     1  UNL1        0.1203
     31 C          66.0975   93.9253   11.5181 C.2     1  UNL1        0.2740
     32 O          67.0475   95.0831   11.4344 O.2     1  UNL1       -0.2705
     33 C          65.3230   93.5016   10.3053 C.3     1  UNL1        0.2900
     34 O          64.3730   92.3438   10.3890 O.3     1  UNL1       -0.4643
@<TRIPOS>BOND
     1    10    11    1
     2    11    12   ar
     3    12    13   ar
     4    13    14   ar
     5    14    15   ar
     6    15     9    1
     7     9     8    1
     8     8     7    1
     9     7     1    1
    10     1     2    1
    11     2     3    1
    12     3     4    1
    13     4    21    1
    14    21    22    1
    15    22    23   ar
    16    23    24   ar
    17    24    25   ar
    18    25    26   ar
    19    26    27   ar
    20    27    28    1
    21    26    29    1
    22    29    30    1
    23    29    31   am
    24    31    32    2
    25    31    33    1
    26    33    34    1
    27     4     5    1
    28     5     6    1
    29    15    16   ar
    30    16    17   ar
    31    17    18   ar
    32    18    19   ar
    33    19    20   ar
    34    20    11   ar
    35    19    14   ar
    36     6     1    1
    37    27    22   ar
    38    34    25    1
@<TRIPOS>MOLECULE
*****
 34 38 0 0 0
SMALL
GASTEIGER

@<TRIPOS>ATOM
      1 N          63.9211   85.4682   15.6080 N.3     1  UNL1       -0.2672
      2 C          63.1286   85.9868   16.7713 C.3     1  UNL1        0.0898
      3 C          62.8935   87.4606   16.9212 C.3     1  UNL1        0.0899
      4 N          63.4508   88.4159   15.9078 N.3     1  UNL1       -0.2665
      5 C          64.2432   87.8973   14.7446 C.3     1  UNL1        0.0899
      6 C          64.4783   86.4234   14.5947 C.3     1  UNL1        0.0898
      7 C          64.1562   83.9943   15.4582 C.3     1  UNL1        0.1201
      8 C          63.6869   83.2816   14.2245 C.3     1  UNL1        0.2226
      9 O          62.6672   83.9224   13.3303 O.3     1  UNL1       -0.4739
     10 C          60.4558   88.5956    8.8003 C.3     1  UNL1        0.0521
     11 C          61.0787   87.4665    9.5665 C.ar    1  UNL1        0.0593
     12 C          60.7987   87.3099   11.0318 C.ar    1  UNL1        0.0148
     13 C          61.4215   86.1807   11.7979 C.ar    1  UNL1        0.0057
     14 C          62.3244   85.2081   11.0988 C.ar    1  UNL1        0.0516
     15 C          62.9472   84.0789   11.8650 C.ar    1  UNL1        0.1400
     16 C          63.8501   83.1063   11.1659 C.ar    1  UNL1        0.0370
     17 C          64.1302   83.2628    9.7006 C.ar    1  UNL1        0.0047
     18 C          63.5073   84.3920    8.9344 C.ar    1  UNL1        0.0193
     19 C          62.6044   85.3647    9.6336 C.ar    1  UNL1        0.0838
     20 N          61.9816   86.4938    8.8674 N.ar    1  UNL1       -0.2496
     21 C          63.2157   89.8897   16.0577 C.3     1  UNL1        0.1015
     22 C          64.1447   90.8679   15.4018 C.ar    1  UNL1        0.0228
     23 C          65.1282   91.6398   16.2306 C.ar    1  UNL1        0.0025
     24 C          66.0571   92.6179   15.5747 C.ar    1  UNL1        0.0381
     25 C          66.0026   92.8242   14.0900 C.ar    1  UNL1        0.1550
     26 C          65.0192   92.0523   13.2611 C.ar    1  UNL1        0.1156
     27 C          64.0903   91.0742   13.9170 C.ar    1  UNL1        0.1540
     28 F          63.1067   90.3023   13.0882 F       1  UNL1       -0.2030
     29 N          64.9647   92.2586   11.7764 N.am    1  UNL1       -0.2494
     30 C          63.9813   91.4868   10.9475 C.3     1  UNL1        0.1203
     31 C          65.8937   93.2368   11.1205 C.2     1  UNL1        0.2740
     32 O          65.8392   93.4430    9.6357 O.2     1  UNL1       -0.2705
     33 C          66.8772   94.0087   11.9493 C.3     1  UNL1        0.2900
     34 O          66.9317   93.8024   13.4341 O.3     1  UNL1       -0.4643
@<TRIPOS>BOND
     1    10    11    1
     2    11    12   ar
     3    12    13   ar
     4    13    14   ar
     5    14    15   ar
     6    15     9    1
     7     9     8    1
     8     8     7    1
     9     7     1    1
    10     1     2    1
    11     2     3    1
    12     3     4    1
    13     4    21    1
    14    21    22    1
    15    22    23   ar
    16    23    24   ar
    17    24    25   ar
    18    25    26   ar
    19    26    27   ar
    20    27    28    1
    21    26    29    1
    22    29    30    1
    23    29    31   am
    24    31    32    2
    25    31    33    1
    26    33    34    1
    27     4     5    1
    28     5     6    1
    29    15    16   ar
    30    16    17   ar
    31    17    18   ar
    32    18    19   ar
    33    19    20   ar
    34    20    11   ar
    35    19    14   ar
    36     6     1    1
    37    27    22   ar
    38    34    25    1
@<TRIPOS>MOLECULE
*****
 34 38 0 0 0
SMALL
GASTEIGER

@<TRIPOS>ATOM
      1 N          63.4510   87.7886   16.3019 N.3     1  UNL1       -0.2672
      2 C          62.7817   86.5403   16.7959 C.3     1  UNL1        0.0898
      3 C          62.8510   85.2807   15.9843 C.3     1  UNL1        0.0899
      4 N          63.5896   85.2694   14.6787 N.3     1  UNL1       -0.2665
      5 C          64.2590   86.5176   14.1849 C.3     1  UNL1        0.0899
      6 C          64.1897   87.7772   14.9965 C.3     1  UNL1        0.0898
      7 C          63.3817   89.0481   17.1135 C.3     1  UNL1        0.1201
      8 C          63.1330   90.3636   16.4369 C.3     1  UNL1        0.2226
      9 O          63.7593   90.6520   15.1048 O.3     1  UNL1       -0.4739
     10 C          66.7114   93.6702    9.6802 C.3     1  UNL1        0.0521
     11 C          66.2690   93.1453   11.0139 C.ar    1  UNL1        0.0593
     12 C          65.0866   92.2267   11.1037 C.ar    1  UNL1        0.0148
     13 C          64.6442   91.7018   12.4374 C.ar    1  UNL1        0.0057
     14 C          65.3841   92.0955   13.6813 C.ar    1  UNL1        0.0516
     15 C          64.9417   91.5706   15.0150 C.ar    1  UNL1        0.1400
     16 C          65.6817   91.9642   16.2589 C.ar    1  UNL1        0.0370
     17 C          66.8642   92.8828   16.1692 C.ar    1  UNL1        0.0047
     18 C          67.3066   93.4078   14.8355 C.ar    1  UNL1        0.0193
     19 C          66.5665   93.0140   13.5915 C.ar    1  UNL1        0.0838
     20 N          67.0090   93.5389   12.2578 N.ar    1  UNL1       -0.2496
     21 C          63.6589   84.0099   13.8671 C.3     1  UNL1        0.1015
     22 C          63.5178   84.0704   12.3750 C.ar    1  UNL1        0.0228
     23 C          64.3657   83.1905   11.5051 C.ar    1  UNL1        0.0025
     24 C          64.2246   83.2511   10.0130 C.ar    1  UNL1        0.0381
     25 C          63.2356   84.1916    9.3908 C.ar    1  UNL1        0.1550
     26 C          62.3877   85.0716   10.2606 C.ar    1  UNL1        0.1156
     27 C          62.5288   85.0110   11.7527 C.ar    1  UNL1        0.1540
     28 F          61.6809   85.8910   12.6227 F       1  UNL1       -0.2030
     29 N          61.3986   86.0121    9.6384 N.am    1  UNL1       -0.2494
     30 C          60.5507   86.8921   10.5083 C.3     1  UNL1        0.1203
     31 C          61.2575   86.0727    8.1463 C.2     1  UNL1        0.2740
     32 O          60.2684   87.0132    7.5241 O.2     1  UNL1       -0.2705
     33 C          62.1054   85.1927    7.2764 C.3     1  UNL1        0.2900
     34 O          63.0944   84.2521    7.8986 O.3     1  UNL1       -0.4643
@<TRIPOS>BOND
     1    10    11    1
     2    11    12   ar
     3    12    13   ar
     4    13    14   ar
     5    14    15   ar
     6    15     9    1
     7     9     8    1
     8     8     7    1
     9     7     1    1
    10     1     2    1
    11     2     3    1
    12     3     4    1
    13     4    21    1
    14    21    22    1
    15    22    23   ar
    16    23    24   ar
    17    24    25   ar
    18    25    26   ar
    19    26    27   ar
    20    27    28    1
    21    26    29    1
    22    29    30    1
    23    29    31   am
    24    31    32    2
    25    31    33    1
    26    33    34    1
    27     4     5    1
    28     5     6    1
    29    15    16   ar
    30    16    17   ar
    31    17    18   ar
    32    18    19   ar
    33    19    20   ar
    34    20    11   ar
    35    19    14   ar
    36     6     1    1
    37    27    22   ar
    38    34    25    1
@<TRIPOS>MOLECULE
*****
 34 38 0 0 0
SMALL
GASTEIGER

@<TRIPOS>ATOM
      1 N          63.3920   87.5900   16.3582 N.3     1  UNL1       -0.2672
      2 C          62.6223   86.3617   16.7443 C.3     1  UNL1        0.0898
      3 C          62.7309   85.1169   15.9144 C.3     1  UNL1        0.0899
      4 N          63.6092   85.1004   14.6984 N.3     1  UNL1       -0.2665
      5 C          64.3788   86.3286   14.3124 C.3     1  UNL1        0.0899
      6 C          64.2702   87.5734   15.1423 C.3     1  UNL1        0.0898
      7 C          63.2835   88.8347   17.1881 C.3     1  UNL1        0.1201
      8 C          63.1327   90.1699   16.5213 C.3     1  UNL1        0.2226
      9 O          64.1534   90.6290   15.5226 O.3     1  UNL1       -0.4739
     10 C          67.0037   94.1556   10.3565 C.3     1  UNL1        0.0521
     11 C          66.2031   93.2901   11.2838 C.ar    1  UNL1        0.0593
     12 C          66.5553   93.2253   12.7404 C.ar    1  UNL1        0.0148
     13 C          65.7547   92.3598   13.6678 C.ar    1  UNL1        0.0057
     14 C          64.6018   91.5593   13.1386 C.ar    1  UNL1        0.0516
     15 C          63.8012   90.6939   14.0660 C.ar    1  UNL1        0.1400
     16 C          62.6484   89.8934   13.5368 C.ar    1  UNL1        0.0370
     17 C          62.2961   89.9582   12.0801 C.ar    1  UNL1        0.0047
     18 C          63.0968   90.8236   11.1528 C.ar    1  UNL1        0.0193
     19 C          64.2496   91.6242   11.6820 C.ar    1  UNL1        0.0838
     20 N          65.0503   92.4896   10.7546 N.ar    1  UNL1       -0.2496
     21 C          63.7177   83.8556   13.8685 C.3     1  UNL1        0.1015
     22 C          63.5753   83.9336   12.3773 C.ar    1  UNL1        0.0228
     23 C          64.4103   83.0519   11.4969 C.ar    1  UNL1        0.0025
     24 C          64.2679   83.1299   10.0058 C.ar    1  UNL1        0.0381
     25 C          63.2903   84.0898    9.3950 C.ar    1  UNL1        0.1550
     26 C          62.4552   84.9715   10.2753 C.ar    1  UNL1        0.1156
     27 C          62.5977   84.8935   11.7665 C.ar    1  UNL1        0.1540
     28 F          61.7626   85.7753   12.6469 F       1  UNL1       -0.2030
     29 N          61.4776   85.9314    9.6645 N.am    1  UNL1       -0.2494
     30 C          60.6426   86.8132   10.5449 C.3     1  UNL1        0.1203
     31 C          61.3352   86.0094    8.1734 C.2     1  UNL1        0.2740
     32 O          60.3576   86.9693    7.5626 O.2     1  UNL1       -0.2705
     33 C          62.1703   85.1276    7.2929 C.3     1  UNL1        0.2900
     34 O          63.1478   84.1678    7.9037 O.3     1  UNL1       -0.4643
@<TRIPOS>BOND
     1    10    11    1
     2    11    12   ar
     3    12    13   ar
     4    13    14   ar
     5    14    15   ar
     6    15     9    1
     7     9     8    1
     8     8     7    1
     9     7     1    1
    10     1     2    1
    11     2     3    1
    12     3     4    1
    13     4    21    1
    14    21    22    1
    15    22    23   ar
    16    23    24   ar
    17    24    25   ar
    18    25    26   ar
    19    26    27   ar
    20    27    28    1
    21    26    29    1
    22    29    30    1
    23    29    31   am
    24    31    32    2
    25    31    33    1
    26    33    34    1
    27     4     5    1
    28     5     6    1
    29    15    16   ar
    30    16    17   ar
    31    17    18   ar
    32    18    19   ar
    33    19    20   ar
    34    20    11   ar
    35    19    14   ar
    36     6     1    1
    37    27    22   ar
    38    34    25    1
@<TRIPOS>MOLECULE
*****
 34 38 0 0 0
SMALL
GASTEIGER

@<TRIPOS>ATOM
      1 N          63.9802   85.6532   15.9356 N.3     1  UNL1       -0.2672
      2 C          63.1762   86.2745   17.0391 C.3     1  UNL1        0.0898
      3 C          62.9176   87.7520   17.0383 C.3     1  UNL1        0.0899
      4 N          63.4631   88.6083   15.9341 N.3     1  UNL1       -0.2665
      5 C          64.2671   87.9870   14.8307 C.3     1  UNL1        0.0899
      6 C          64.5256   86.5095   14.8314 C.3     1  UNL1        0.0898
      7 C          64.2388   84.1757   15.9363 C.3     1  UNL1        0.1201
      8 C          63.2526   83.2414   15.3001 C.3     1  UNL1        0.2226
      9 O          62.3297   83.7412   14.2285 O.3     1  UNL1       -0.4739
     10 C          62.8816   78.1400   10.2824 C.3     1  UNL1        0.0521
     11 C          62.8377   79.5026   10.9078 C.ar    1  UNL1        0.0593
     12 C          62.4613   79.6532   12.3520 C.ar    1  UNL1        0.0148
     13 C          62.4175   81.0158   12.9775 C.ar    1  UNL1        0.0057
     14 C          62.7499   82.2279   12.1588 C.ar    1  UNL1        0.0516
     15 C          62.7061   83.5906   12.7843 C.ar    1  UNL1        0.1400
     16 C          63.0385   84.8027   11.9657 C.ar    1  UNL1        0.0370
     17 C          63.4149   84.6521   10.5214 C.ar    1  UNL1        0.0047
     18 C          63.4588   83.2895    9.8959 C.ar    1  UNL1        0.0193
     19 C          63.1263   82.0773   10.7147 C.ar    1  UNL1        0.0838
     20 N          63.1702   80.7147   10.0892 N.ar    1  UNL1       -0.2496
     21 C          63.2045   90.0859   15.9334 C.3     1  UNL1        0.1015
     22 C          64.1657   91.0151   15.2530 C.ar    1  UNL1        0.0228
     23 C          65.1874   91.7599   16.0601 C.ar    1  UNL1        0.0025
     24 C          66.1484   92.6891   15.3797 C.ar    1  UNL1        0.0381
     25 C          66.0878   92.8735   13.8923 C.ar    1  UNL1        0.1550
     26 C          65.0661   92.1287   13.0853 C.ar    1  UNL1        0.1156
     27 C          64.1050   91.1995   13.7656 C.ar    1  UNL1        0.1540
     28 F          63.0833   90.4547   12.9586 F       1  UNL1       -0.2030
     29 N          65.0055   92.3131   11.5979 N.am    1  UNL1       -0.2494
     30 C          63.9838   91.5683   10.7909 C.3     1  UNL1        0.1203
     31 C          65.9665   93.2423   10.9176 C.2     1  UNL1        0.2740
     32 O          65.9059   93.4267    9.4302 O.2     1  UNL1       -0.2705
     33 C          66.9883   93.9871   11.7246 C.3     1  UNL1        0.2900
     34 O          67.0489   93.8027   13.2120 O.3     1  UNL1       -0.4643
@<TRIPOS>BOND
     1    10    11    1
     2    11    12   ar
     3    12    13   ar
     4    13    14   ar
     5    14    15   ar
     6    15     9    1
     7     9     8    1
     8     8     7    1
     9     7     1    1
    10     1     2    1
    11     2     3    1
    12     3     4    1
    13     4    21    1
    14    21    22    1
    15    22    23   ar
    16    23    24   ar
    17    24    25   ar
    18    25    26   ar
    19    26    27   ar
    20    27    28    1
    21    26    29    1
    22    29    30    1
    23    29    31   am
    24    31    32    2
    25    31    33    1
    26    33    34    1
    27     4     5    1
    28     5     6    1
    29    15    16   ar
    30    16    17   ar
    31    17    18   ar
    32    18    19   ar
    33    19    20   ar
    34    20    11   ar
    35    19    14   ar
    36     6     1    1
    37    27    22   ar
    38    34    25    1
@<TRIPOS>MOLECULE
*****
 34 38 0 0 0
SMALL
GASTEIGER

@<TRIPOS>ATOM
      1 N          59.4609   90.2804    5.7338 N.3     1  UNL1       -0.2672
      2 C          60.8084   90.6443    5.1844 C.3     1  UNL1        0.0898
      3 C          60.9464   91.8041    4.2432 C.3     1  UNL1        0.0899
      4 N          59.7368   92.6000    3.8513 N.3     1  UNL1       -0.2665
      5 C          58.3893   92.2360    4.4007 C.3     1  UNL1        0.0899
      6 C          58.2513   91.0763    5.3419 C.3     1  UNL1        0.0898
      7 C          59.3229   89.1206    6.6750 C.3     1  UNL1        0.1201
      8 C          59.7586   89.2583    8.1037 C.3     1  UNL1        0.2226
      9 O          60.6940   88.2503    8.7030 O.3     1  UNL1       -0.4739
     10 C          63.5591   84.3511   13.5853 C.3     1  UNL1        0.0521
     11 C          63.0539   85.4186   12.6605 C.ar    1  UNL1        0.0593
     12 C          62.2097   85.0479   11.4773 C.ar    1  UNL1        0.0148
     13 C          61.7045   86.1154   10.5526 C.ar    1  UNL1        0.0057
     14 C          62.0434   87.5535   10.8109 C.ar    1  UNL1        0.0516
     15 C          61.5382   88.6210    9.8862 C.ar    1  UNL1        0.1400
     16 C          61.8771   90.0591   10.1445 C.ar    1  UNL1        0.0370
     17 C          62.7213   90.4299   11.3277 C.ar    1  UNL1        0.0047
     18 C          63.2266   89.3624   12.2525 C.ar    1  UNL1        0.0193
     19 C          62.8876   87.9242   11.9941 C.ar    1  UNL1        0.0838
     20 N          63.3928   86.8567   12.9189 N.ar    1  UNL1       -0.2496
     21 C          59.8747   93.7597    2.9101 C.3     1  UNL1        0.1015
     22 C          60.5753   93.5799    1.5959 C.ar    1  UNL1        0.0228
     23 C          60.1595   92.4761    0.6693 C.ar    1  UNL1        0.0025
     24 C          60.8601   92.2963   -0.6448 C.ar    1  UNL1        0.0381
     25 C          61.9763   93.2203   -1.0323 C.ar    1  UNL1        0.1550
     26 C          62.3920   94.3241   -0.1056 C.ar    1  UNL1        0.1156
     27 C          61.6915   94.5039    1.2085 C.ar    1  UNL1        0.1540
     28 F          62.1072   95.6078    2.1352 F       1  UNL1       -0.2030
     29 N          63.5083   95.2482   -0.4931 N.am    1  UNL1       -0.2494
     30 C          63.9240   96.3520    0.4335 C.3     1  UNL1        0.1203
     31 C          64.2088   95.0684   -1.8072 C.2     1  UNL1        0.2740
     32 O          65.3251   95.9924   -2.1947 O.2     1  UNL1       -0.2705
     33 C          63.7931   93.9645   -2.7339 C.3     1  UNL1        0.2900
     34 O          62.6768   93.0405   -2.3464 O.3     1  UNL1       -0.4643
@<TRIPOS>BOND
     1    10    11    1
     2    11    12   ar
     3    12    13   ar
     4    13    14   ar
     5    14    15   ar
     6    15     9    1
     7     9     8    1
     8     8     7    1
     9     7     1    1
    10     1     2    1
    11     2     3    1
    12     3     4    1
    13     4    21    1
    14    21    22    1
    15    22    23   ar
    16    23    24   ar
    17    24    25   ar
    18    25    26   ar
    19    26    27   ar
    20    27    28    1
    21    26    29    1
    22    29    30    1
    23    29    31   am
    24    31    32    2
    25    31    33    1
    26    33    34    1
    27     4     5    1
    28     5     6    1
    29    15    16   ar
    30    16    17   ar
    31    17    18   ar
    32    18    19   ar
    33    19    20   ar
    34    20    11   ar
    35    19    14   ar
    36     6     1    1
    37    27    22   ar
    38    34    25    1
@<TRIPOS>MOLECULE
*****
 34 38 0 0 0
SMALL
GASTEIGER

@<TRIPOS>ATOM
      1 N          59.4603   90.1890    5.7556 N.3     1  UNL1       -0.2672
      2 C          60.7965   90.5681    5.1890 C.3     1  UNL1        0.0898
      3 C          60.9115   91.7383    4.2577 C.3     1  UNL1        0.0899
      4 N          59.6904   92.5295    3.8930 N.3     1  UNL1       -0.2665
      5 C          58.3543   92.1504    4.4596 C.3     1  UNL1        0.0899
      6 C          58.2392   90.9801    5.3909 C.3     1  UNL1        0.0898
      7 C          59.3453   89.0187    6.6869 C.3     1  UNL1        0.1201
      8 C          59.5126   89.2167    8.1643 C.3     1  UNL1        0.2226
      9 O          60.8872   89.3071    8.7580 O.3     1  UNL1       -0.4739
     10 C          64.6603   89.7117   14.4894 C.3     1  UNL1        0.0521
     11 C          63.8384   89.3433   13.2899 C.ar    1  UNL1        0.0593
     12 C          63.3528   90.4123   12.3565 C.ar    1  UNL1        0.0148
     13 C          62.5309   90.0439   11.1570 C.ar    1  UNL1        0.0057
     14 C          62.1947   88.6065   10.8909 C.ar    1  UNL1        0.0516
     15 C          61.3728   88.2381    9.6914 C.ar    1  UNL1        0.1400
     16 C          61.0365   86.8007    9.4254 C.ar    1  UNL1        0.0370
     17 C          61.5221   85.7317   10.3589 C.ar    1  UNL1        0.0047
     18 C          62.3440   86.1000   11.5584 C.ar    1  UNL1        0.0193
     19 C          62.6803   87.5375   11.8244 C.ar    1  UNL1        0.0838
     20 N          63.5022   87.9059   13.0239 N.ar    1  UNL1       -0.2496
     21 C          59.8054   93.6998    2.9618 C.3     1  UNL1        0.1015
     22 C          60.4910   93.5396    1.6372 C.ar    1  UNL1        0.0228
     23 C          60.0358   92.4777    0.6806 C.ar    1  UNL1        0.0025
     24 C          60.7214   92.3176   -0.6439 C.ar    1  UNL1        0.0381
     25 C          61.8621   93.2194   -1.0118 C.ar    1  UNL1        0.1550
     26 C          62.3173   94.2813   -0.0552 C.ar    1  UNL1        0.1156
     27 C          61.6318   94.4414    1.2693 C.ar    1  UNL1        0.1540
     28 F          62.0870   95.5034    2.2259 F       1  UNL1       -0.2030
     29 N          63.4581   95.1832   -0.4231 N.am    1  UNL1       -0.2494
     30 C          63.9133   96.2451    0.5334 C.3     1  UNL1        0.1203
     31 C          64.1437   95.0231   -1.7476 C.2     1  UNL1        0.2740
     32 O          65.2844   95.9249   -2.1155 O.2     1  UNL1       -0.2705
     33 C          63.6885   93.9611   -2.7043 C.3     1  UNL1        0.2900
     34 O          62.5477   93.0593   -2.3364 O.3     1  UNL1       -0.4643
@<TRIPOS>BOND
     1    10    11    1
     2    11    12   ar
     3    12    13   ar
     4    13    14   ar
     5    14    15   ar
     6    15     9    1
     7     9     8    1
     8     8     7    1
     9     7     1    1
    10     1     2    1
    11     2     3    1
    12     3     4    1
    13     4    21    1
    14    21    22    1
    15    22    23   ar
    16    23    24   ar
    17    24    25   ar
    18    25    26   ar
    19    26    27   ar
    20    27    28    1
    21    26    29    1
    22    29    30    1
    23    29    31   am
    24    31    32    2
    25    31    33    1
    26    33    34    1
    27     4     5    1
    28     5     6    1
    29    15    16   ar
    30    16    17   ar
    31    17    18   ar
    32    18    19   ar
    33    19    20   ar
    34    20    11   ar
    35    19    14   ar
    36     6     1    1
    37    27    22   ar
    38    34    25    1
