@<TRIPOS>MOLECULE
*****
 38 42 0 0 0
SMALL
GASTEIGER

@<TRIPOS>ATOM
      1 O          63.3598   91.3466   16.8183 O.2     1  UNL1       -0.2749
      2 C          63.9167   90.5869   15.6510 C.2     1  UNL1        0.2253
      3 N          63.8233   89.0902   15.6168 N.am    1  UNL1       -0.2795
      4 C          63.2045   88.2212   16.6712 C.3     1  UNL1        0.0935
      5 C          63.3310   86.7936   16.2283 C.3     1  UNL1        0.0246
      6 C          64.0281   86.7804   14.9001 C.3     1  UNL1        0.0390
      7 C          64.3323   88.1998   14.5222 C.3     1  UNL1        0.0948
      8 C          64.5671   91.3239   14.5179 C.3     1  UNL1        0.0801
      9 C          65.8276   92.1017   14.7544 C.3     1  UNL1        0.0305
     10 C          66.4779   92.8387   13.6213 C.3     1  UNL1        0.0913
     11 N          65.8677   92.7978   12.2516 N.pl3   1  UNL1       -0.3074
     12 C          64.6072   92.0199   12.0151 C.3     1  UNL1        0.0913
     13 C          63.9569   91.2830   13.1482 C.3     1  UNL1        0.0305
     14 C          66.5181   93.5348   11.1185 C.ar    1  UNL1        0.0510
     15 C          66.3118   95.0129   10.9686 C.ar    1  UNL1        0.0352
     16 C          66.9622   95.7499    9.8355 C.ar    1  UNL1        0.1002
     17 N          67.8188   95.0087    8.8523 N.ar    1  UNL1       -0.2422
     18 C          68.0251   93.5304    9.0022 C.ar    1  UNL1        0.1002
     19 C          67.3747   92.7935   10.1353 C.ar    1  UNL1        0.0352
     20 C          64.3622   85.5619   14.0917 C.3     1  UNL1        0.0932
     21 N          63.2630   84.7038   13.5391 N.3     1  UNL1       -0.1793
     22 H          62.5135   84.7037   14.2310 H       1  UNL1        0.1488
     23 S          62.6351   85.0462   12.2206 S.O2    1  UNL1        0.0615
     24 O          62.4506   83.5864   11.9294 O.2     1  UNL1       -0.1530
     25 O          62.8197   86.5061   12.5119 O.2     1  UNL1       -0.1530
     26 C          62.0072   85.3886   10.9021 C.2     1  UNL1        0.1409
     27 C          61.2768   86.6878   10.7341 C.2     1  UNL1        0.0277
     28 C          60.6489   87.0303    9.4156 C.ar    1  UNL1        0.0309
     29 C          60.1231   86.0509    8.4084 C.ar    1  UNL1        0.0070
     30 C          59.5858   86.8277    7.2431 C.ar    1  UNL1        0.0075
     31 C          59.7795   88.2872    7.5301 C.ar    1  UNL1        0.0355
     32 S          60.4364   88.4124    8.8727 S.2     1  UNL1       -0.0864
     33 C          59.3853   89.4222    6.6321 C.ar    1  UNL1        0.0363
     34 C          60.3231   90.3027    5.8606 C.ar    1  UNL1        0.0084
     35 C          59.5014   91.3006    5.0995 C.ar    1  UNL1        0.0185
     36 C          58.0559   91.0368    5.4008 C.ar    1  UNL1        0.0870
     37 CL         56.8872   91.7999    4.8513 Cl      1  UNL1       -0.0752
     38 S          57.9841   89.8759    6.3479 S.2     1  UNL1       -0.0750
@<TRIPOS>BOND
     1     1     2    2
     2     2     8    1
     3     8     9    1
     4     9    10    1
     5    10    11    1
     6    11    14    1
     7    14    15   ar
     8    15    16   ar
     9    16    17   ar
    10    17    18   ar
    11    18    19   ar
    12    11    12    1
    13    12    13    1
    14     2     3   am
    15     3     4    1
    16     4     5    1
    17     5     6    1
    18     6    20    1
    19    20    21    1
    20    21    23    1
    21    23    24    2
    22    23    25    2
    23    23    26    1
    24    26    27    2
    25    27    28    1
    26    28    29   ar
    27    29    30   ar
    28    30    31   ar
    29    31    33    1
    30    33    34   ar
    31    34    35   ar
    32    35    36   ar
    33    36    37    1
    34    36    38   ar
    35    31    32   ar
    36     6     7    1
    37    13     8    1
    38     7     3    1
    39    19    14   ar
    40    32    28   ar
    41    38    33   ar
    42    21    22    1
@<TRIPOS>MOLECULE
*****
 38 42 0 0 0
SMALL
GASTEIGER

@<TRIPOS>ATOM
      1 O          60.9268   86.7203   11.5831 O.2     1  UNL1       -0.2749
      2 C          61.0925   87.8722   10.6367 C.2     1  UNL1        0.2253
      3 N          60.3055   87.9135    9.3605 N.am    1  UNL1       -0.2795
      4 C          59.3205   86.8810    8.8983 C.3     1  UNL1        0.0935
      5 C          58.7715   87.3239    7.5745 C.3     1  UNL1        0.0246
      6 C          59.4173   88.6302    7.2185 C.3     1  UNL1        0.0390
      7 C          60.3653   88.9946    8.3223 C.3     1  UNL1        0.0948
      8 C          62.0453   88.9828   10.9667 C.3     1  UNL1        0.0801
      9 C          62.2096   90.1357   10.0212 C.3     1  UNL1        0.0305
     10 C          63.1624   91.2462   10.3512 C.3     1  UNL1        0.0913
     11 N          63.9508   91.2039   11.6266 N.pl3   1  UNL1       -0.3074
     12 C          63.7864   90.0511   12.5720 C.3     1  UNL1        0.0913
     13 C          62.8337   88.9406   12.2421 C.3     1  UNL1        0.0305
     14 C          64.9035   92.3146   11.9565 C.ar    1  UNL1        0.0510
     15 C          65.2484   93.3403   10.9178 C.ar    1  UNL1        0.0352
     16 C          66.2012   94.4509   11.2477 C.ar    1  UNL1        0.1002
     17 N          66.8091   94.5358   12.6164 N.ar    1  UNL1       -0.2422
     18 C          66.4642   93.5100   13.6551 C.ar    1  UNL1        0.1002
     19 C          65.5114   92.3994   13.3252 C.ar    1  UNL1        0.0352
     20 C          59.1601   89.4314    5.9768 C.3     1  UNL1        0.0932
     21 N          59.0628   90.9262    6.0554 N.3     1  UNL1       -0.1793
     22 H          59.7232   91.2269    6.7722 H       1  UNL1        0.1488
     23 S          59.3346   91.7605    4.8388 S.O2    1  UNL1        0.0615
     24 O          60.7563   91.2823    4.8285 O.2     1  UNL1       -0.1530
     25 O          57.9128   92.2386    4.8492 O.2     1  UNL1       -0.1530
     26 C          59.6063   92.5947    3.6222 C.2     1  UNL1        0.1409
     27 C          60.9890   92.6489    3.0436 C.2     1  UNL1        0.0277
     28 C          61.2609   93.4832    1.8270 C.ar    1  UNL1        0.0309
     29 C          60.6625   94.8254    1.5265 C.ar    1  UNL1        0.0070
     30 C          61.2107   95.2934    0.2110 C.ar    1  UNL1        0.0075
     31 C          62.1480   94.2404   -0.3015 C.ar    1  UNL1        0.0355
     32 S          62.1790   93.1217    0.6971 S.2     1  UNL1       -0.0864
     33 C          62.9188   94.2964   -1.5871 C.ar    1  UNL1        0.0363
     34 C          62.9953   93.2089   -2.6173 C.ar    1  UNL1        0.0084
     35 C          63.8723   93.6902   -3.7351 C.ar    1  UNL1        0.0185
     36 C          64.3377   95.0751   -3.3956 C.ar    1  UNL1        0.0870
     37 CL         65.2350   95.9346   -4.2361 Cl      1  UNL1       -0.0752
     38 S          63.7484   95.4498   -2.0680 S.2     1  UNL1       -0.0750
@<TRIPOS>BOND
     1     1     2    2
     2     2     8    1
     3     8     9    1
     4     9    10    1
     5    10    11    1
     6    11    14    1
     7    14    15   ar
     8    15    16   ar
     9    16    17   ar
    10    17    18   ar
    11    18    19   ar
    12    11    12    1
    13    12    13    1
    14     2     3   am
    15     3     4    1
    16     4     5    1
    17     5     6    1
    18     6    20    1
    19    20    21    1
    20    21    23    1
    21    23    24    2
    22    23    25    2
    23    23    26    1
    24    26    27    2
    25    27    28    1
    26    28    29   ar
    27    29    30   ar
    28    30    31   ar
    29    31    33    1
    30    33    34   ar
    31    34    35   ar
    32    35    36   ar
    33    36    37    1
    34    36    38   ar
    35    31    32   ar
    36     6     7    1
    37    13     8    1
    38     7     3    1
    39    19    14   ar
    40    32    28   ar
    41    38    33   ar
    42    21    22    1
@<TRIPOS>MOLECULE
*****
 38 42 0 0 0
SMALL
GASTEIGER

@<TRIPOS>ATOM
      1 O          61.5158   86.1790   11.4916 O.2     1  UNL1       -0.2749
      2 C          61.5064   87.4923   10.7668 C.2     1  UNL1        0.2253
      3 N          60.6207   87.6829    9.5714 N.am    1  UNL1       -0.2795
      4 C          59.6951   86.6571    8.9874 C.3     1  UNL1        0.0935
      5 C          59.0074   87.2729    7.8051 C.3     1  UNL1        0.0246
      6 C          59.5079   88.6794    7.6584 C.3     1  UNL1        0.0390
      7 C          60.5050   88.9327    8.7501 C.3     1  UNL1        0.0948
      8 C          62.3828   88.6150   11.2376 C.3     1  UNL1        0.0801
      9 C          62.6126   89.8071   10.3567 C.3     1  UNL1        0.0305
     10 C          63.4889   90.9297   10.8275 C.3     1  UNL1        0.0913
     11 N          64.1354   90.8602   12.1792 N.pl3   1  UNL1       -0.3074
     12 C          63.9056   89.6682   13.0601 C.3     1  UNL1        0.0913
     13 C          63.0293   88.5455   12.5893 C.3     1  UNL1        0.0305
     14 C          65.0118   91.9830   12.6500 C.ar    1  UNL1        0.0510
     15 C          65.5190   91.9972   14.0615 C.ar    1  UNL1        0.0352
     16 C          66.3954   93.1199   14.5323 C.ar    1  UNL1        0.1002
     17 N          66.7645   94.2283   13.5915 N.ar    1  UNL1       -0.2422
     18 C          66.2573   94.2140   12.1799 C.ar    1  UNL1        0.1002
     19 C          65.3809   93.0914   11.7092 C.ar    1  UNL1        0.0352
     20 C          59.0856   89.6602    6.6051 C.3     1  UNL1        0.0932
     21 N          60.1165   90.4781    5.8853 N.3     1  UNL1       -0.1793
     22 H          60.7646   89.8202    5.4523 H       1  UNL1        0.1488
     23 S          59.6964   91.4404    4.8141 S.O2    1  UNL1        0.0615
     24 O          61.1282   91.6016    4.3973 O.2     1  UNL1       -0.1530
     25 O          58.2644   91.2793    5.2310 O.2     1  UNL1       -0.1530
     26 C          59.2762   92.4027    3.7429 C.2     1  UNL1        0.1409
     27 C          60.2286   92.7607    2.6408 C.2     1  UNL1        0.0277
     28 C          59.8085   93.7231    1.5696 C.ar    1  UNL1        0.0309
     29 C          60.1227   95.1892    1.5287 C.ar    1  UNL1        0.0070
     30 C          59.5089   95.7604    0.2850 C.ar    1  UNL1        0.0075
     31 C          58.8152   94.6471   -0.4429 C.ar    1  UNL1        0.0355
     32 S          59.0004   93.3881    0.3510 S.2     1  UNL1       -0.0864
     33 C          58.0677   94.7714   -1.7374 C.ar    1  UNL1        0.0363
     34 C          58.6505   94.6148   -3.1106 C.ar    1  UNL1        0.0084
     35 C          57.5490   94.8207   -4.1079 C.ar    1  UNL1        0.0185
     36 C          56.2855   95.1045   -3.3509 C.ar    1  UNL1        0.0870
     37 CL         54.9379   95.3718   -3.9532 Cl      1  UNL1       -0.0752
     38 S          56.6061   95.0740   -1.8859 S.2     1  UNL1       -0.0750
@<TRIPOS>BOND
     1     1     2    2
     2     2     8    1
     3     8     9    1
     4     9    10    1
     5    10    11    1
     6    11    14    1
     7    14    15   ar
     8    15    16   ar
     9    16    17   ar
    10    17    18   ar
    11    18    19   ar
    12    11    12    1
    13    12    13    1
    14     2     3   am
    15     3     4    1
    16     4     5    1
    17     5     6    1
    18     6    20    1
    19    20    21    1
    20    21    23    1
    21    23    24    2
    22    23    25    2
    23    23    26    1
    24    26    27    2
    25    27    28    1
    26    28    29   ar
    27    29    30   ar
    28    30    31   ar
    29    31    33    1
    30    33    34   ar
    31    34    35   ar
    32    35    36   ar
    33    36    37    1
    34    36    38   ar
    35    31    32   ar
    36     6     7    1
    37    13     8    1
    38     7     3    1
    39    19    14   ar
    40    32    28   ar
    41    38    33   ar
    42    21    22    1
@<TRIPOS>MOLECULE
*****
 38 42 0 0 0
SMALL
GASTEIGER

@<TRIPOS>ATOM
      1 O          63.9778   82.4066   11.1095 O.2     1  UNL1       -0.2749
      2 C          63.5418   83.7001   11.7314 C.2     1  UNL1        0.2253
      3 N          63.8787   83.9952   13.1629 N.am    1  UNL1       -0.2795
      4 C          64.6415   83.0981   14.0921 C.3     1  UNL1        0.0935
      5 C          64.7463   83.7876   15.4201 C.3     1  UNL1        0.0246
      6 C          64.0482   85.1109   15.3117 C.3     1  UNL1        0.0390
      7 C          63.5121   85.2392   13.9167 C.3     1  UNL1        0.0948
      8 C          62.7688   84.6985   10.9217 C.3     1  UNL1        0.0801
      9 C          61.7153   85.5414   11.5772 C.3     1  UNL1        0.0305
     10 C          60.9424   86.5398   10.7675 C.3     1  UNL1        0.0913
     11 N          61.2229   86.6953    9.3022 N.pl3   1  UNL1       -0.3074
     12 C          62.2763   85.8524    8.6466 C.3     1  UNL1        0.0913
     13 C          63.0492   84.8540    9.4563 C.3     1  UNL1        0.0305
     14 C          60.4499   87.6938    8.4924 C.ar    1  UNL1        0.0510
     15 C          59.4852   87.2237    7.4444 C.ar    1  UNL1        0.0352
     16 C          58.7122   88.2222    6.6347 C.ar    1  UNL1        0.1002
     17 N          58.9039   89.6907    6.8730 N.ar    1  UNL1       -0.2422
     18 C          59.8687   90.1607    7.9211 C.ar    1  UNL1        0.1002
     19 C          60.6416   89.1623    8.7307 C.ar    1  UNL1        0.0352
     20 C          63.9106   86.1274   16.4061 C.3     1  UNL1        0.0932
     21 N          62.9814   87.2924   16.2351 N.3     1  UNL1       -0.1793
     22 H          62.4775   87.3988   17.1156 H       1  UNL1        0.1488
     23 S          63.5295   88.6437   15.8838 S.O2    1  UNL1        0.0615
     24 O          63.8886   88.1426   14.5164 O.2     1  UNL1       -0.1530
     25 O          63.1704   89.1448   17.2514 O.2     1  UNL1       -0.1530
     26 C          64.0776   89.9950   15.5325 C.2     1  UNL1        0.1409
     27 C          64.9377   90.1622   14.3152 C.2     1  UNL1        0.0277
     28 C          65.4859   91.5135   13.9638 C.ar    1  UNL1        0.0309
     29 C          66.1568   92.4659   14.9087 C.ar    1  UNL1        0.0070
     30 C          66.5449   93.6907   14.1346 C.ar    1  UNL1        0.0075
     31 C          66.1139   93.4952   12.7111 C.ar    1  UNL1        0.0355
     32 S          65.4595   92.1497   12.6056 S.2     1  UNL1       -0.0864
     33 C          66.3041   94.4736   11.5902 C.ar    1  UNL1        0.0363
     34 C          66.1065   95.9582   11.6727 C.ar    1  UNL1        0.0084
     35 C          66.4056   96.5413   10.3233 C.ar    1  UNL1        0.0185
     36 C          66.7880   95.4170    9.4070 C.ar    1  UNL1        0.0870
     37 CL         67.1666   95.5476    7.9614 Cl      1  UNL1       -0.0752
     38 S          66.7252   94.1391   10.1900 S.2     1  UNL1       -0.0750
@<TRIPOS>BOND
     1     1     2    2
     2     2     8    1
     3     8     9    1
     4     9    10    1
     5    10    11    1
     6    11    14    1
     7    14    15   ar
     8    15    16   ar
     9    16    17   ar
    10    17    18   ar
    11    18    19   ar
    12    11    12    1
    13    12    13    1
    14     2     3   am
    15     3     4    1
    16     4     5    1
    17     5     6    1
    18     6    20    1
    19    20    21    1
    20    21    23    1
    21    23    24    2
    22    23    25    2
    23    23    26    1
    24    26    27    2
    25    27    28    1
    26    28    29   ar
    27    29    30   ar
    28    30    31   ar
    29    31    33    1
    30    33    34   ar
    31    34    35   ar
    32    35    36   ar
    33    36    37    1
    34    36    38   ar
    35    31    32   ar
    36     6     7    1
    37    13     8    1
    38     7     3    1
    39    19    14   ar
    40    32    28   ar
    41    38    33   ar
    42    21    22    1
@<TRIPOS>MOLECULE
*****
 38 42 0 0 0
SMALL
GASTEIGER

@<TRIPOS>ATOM
      1 O          64.4311   82.6264   10.8968 O.2     1  UNL1       -0.2749
      2 C          63.7062   83.7497   11.5770 C.2     1  UNL1        0.2253
      3 N          63.7963   83.9078   13.0659 N.am    1  UNL1       -0.2795
      4 C          64.5687   83.0252   14.0010 C.3     1  UNL1        0.0935
      5 C          64.3797   83.5482   15.3941 C.3     1  UNL1        0.0246
      6 C          63.4905   84.7540   15.3200 C.3     1  UNL1        0.0390
      7 C          63.1300   84.9762   13.8810 C.3     1  UNL1        0.0948
      8 C          62.8910   84.7149   10.7682 C.3     1  UNL1        0.0801
      9 C          63.0786   84.7937    9.2821 C.3     1  UNL1        0.0305
     10 C          62.2634   85.7588    8.4735 C.3     1  UNL1        0.0913
     11 N          61.2608   86.6452    9.1509 N.pl3   1  UNL1       -0.3074
     12 C          61.0732   86.5665   10.6370 C.3     1  UNL1        0.0913
     13 C          61.8883   85.6013   11.4457 C.3     1  UNL1        0.0305
     14 C          60.4456   87.6104    8.3422 C.ar    1  UNL1        0.0510
     15 C          60.5883   89.0863    8.5687 C.ar    1  UNL1        0.0352
     16 C          59.7731   90.0515    7.7599 C.ar    1  UNL1        0.1002
     17 N          58.8154   89.5407    6.7247 N.ar    1  UNL1       -0.2422
     18 C          58.6727   88.0648    6.4982 C.ar    1  UNL1        0.1002
     19 C          59.4878   87.0997    7.3069 C.ar    1  UNL1        0.0352
     20 C          63.0408   85.5907   16.4809 C.3     1  UNL1        0.0932
     21 N          63.6292   86.9535   16.6957 N.3     1  UNL1       -0.1793
     22 H          64.4891   86.8224   17.2285 H       1  UNL1        0.1488
     23 S          63.9768   87.8146   15.5177 S.O2    1  UNL1        0.0615
     24 O          62.8574   88.7487   15.8702 O.2     1  UNL1       -0.1530
     25 O          65.0963   86.8803   15.1652 O.2     1  UNL1       -0.1530
     26 C          64.3244   88.6756   14.3396 C.2     1  UNL1        0.1409
     27 C          63.3386   89.6857   13.8321 C.2     1  UNL1        0.0277
     28 C          63.6861   90.5468   12.6540 C.ar    1  UNL1        0.0309
     29 C          62.8991   90.6603   11.3821 C.ar    1  UNL1        0.0070
     30 C          63.6083   91.6293   10.4831 C.ar    1  UNL1        0.0075
     31 C          64.8337   92.1146   11.1995 C.ar    1  UNL1        0.0355
     32 S          64.8817   91.4456   12.5411 S.2     1  UNL1       -0.0864
     33 C          65.8351   93.0964   10.6674 C.ar    1  UNL1        0.0363
     34 C          67.1577   92.7579   10.0462 C.ar    1  UNL1        0.0084
     35 C          67.8297   94.0416    9.6580 C.ar    1  UNL1        0.0185
     36 C          66.9224   95.1734   10.0394 C.ar    1  UNL1        0.0870
     37 CL         67.1991   96.6333    9.8332 Cl      1  UNL1       -0.0752
     38 S          65.6896   94.5893   10.6633 S.2     1  UNL1       -0.0750
@<TRIPOS>BOND
     1     1     2    2
     2     2     8    1
     3     8     9    1
     4     9    10    1
     5    10    11    1
     6    11    14    1
     7    14    15   ar
     8    15    16   ar
     9    16    17   ar
    10    17    18   ar
    11    18    19   ar
    12    11    12    1
    13    12    13    1
    14     2     3   am
    15     3     4    1
    16     4     5    1
    17     5     6    1
    18     6    20    1
    19    20    21    1
    20    21    23    1
    21    23    24    2
    22    23    25    2
    23    23    26    1
    24    26    27    2
    25    27    28    1
    26    28    29   ar
    27    29    30   ar
    28    30    31   ar
    29    31    33    1
    30    33    34   ar
    31    34    35   ar
    32    35    36   ar
    33    36    37    1
    34    36    38   ar
    35    31    32   ar
    36     6     7    1
    37    13     8    1
    38     7     3    1
    39    19    14   ar
    40    32    28   ar
    41    38    33   ar
    42    21    22    1
@<TRIPOS>MOLECULE
*****
 38 42 0 0 0
SMALL
GASTEIGER

@<TRIPOS>ATOM
      1 O          66.2464   92.9233   11.2397 O.2     1  UNL1       -0.2749
      2 C          65.2538   92.1461   12.0525 C.2     1  UNL1        0.2253
      3 N          65.2888   92.2203   13.5502 N.am    1  UNL1       -0.2795
      4 C          66.2531   93.0245   14.3708 C.3     1  UNL1        0.0935
      5 C          65.9260   92.8044   15.8181 C.3     1  UNL1        0.0246
      6 C          64.7595   91.8642   15.8920 C.3     1  UNL1        0.0390
      7 C          64.3658   91.5032   14.4903 C.3     1  UNL1        0.0948
      8 C          64.2261   91.2948   11.3675 C.3     1  UNL1        0.0801
      9 C          63.7562   90.0235   12.0101 C.3     1  UNL1        0.0305
     10 C          62.7285   89.1723   11.3251 C.3     1  UNL1        0.0913
     11 N          62.1707   89.5924    9.9976 N.pl3   1  UNL1       -0.3074
     12 C          62.6406   90.8636    9.3550 C.3     1  UNL1        0.0913
     13 C          63.6683   91.7149   10.0399 C.3     1  UNL1        0.0305
     14 C          61.1430   88.7410    9.3126 C.ar    1  UNL1        0.0510
     15 C          60.1121   89.3763    8.4274 C.ar    1  UNL1        0.0352
     16 C          59.0844   88.5250    7.7424 C.ar    1  UNL1        0.1002
     17 N          59.0877   87.0384    7.9427 N.ar    1  UNL1       -0.2422
     18 C          60.1187   86.4032    8.8279 C.ar    1  UNL1        0.1002
     19 C          61.1463   87.2545    9.5128 C.ar    1  UNL1        0.0352
     20 C          64.1023   91.3716   17.1471 C.3     1  UNL1        0.0932
     21 N          62.8701   90.5203   17.0640 N.3     1  UNL1       -0.1793
     22 H          62.2339   90.9855   16.4165 H       1  UNL1        0.1488
     23 S          62.9740   89.0919   16.6179 S.O2    1  UNL1        0.0615
     24 O          62.5250   89.4888   15.2429 O.2     1  UNL1       -0.1530
     25 O          63.4230   88.6951   17.9931 O.2     1  UNL1       -0.1530
     26 C          63.0778   87.6636   16.1719 C.2     1  UNL1        0.1409
     27 C          64.1922   87.2415   15.2610 C.2     1  UNL1        0.0277
     28 C          64.2961   85.8131   14.8148 C.ar    1  UNL1        0.0309
     29 C          65.5525   85.1099   14.3943 C.ar    1  UNL1        0.0070
     30 C          65.1947   83.6994   14.0305 C.ar    1  UNL1        0.0075
     31 C          63.7170   83.5309   14.2262 C.ar    1  UNL1        0.0355
     32 S          63.1617   84.8372   14.7109 S.2     1  UNL1       -0.0864
     33 C          62.9326   82.2762   13.9803 C.ar    1  UNL1        0.0363
     34 C          63.4149   81.0663   13.2364 C.ar    1  UNL1        0.0084
     35 C          62.3084   80.0535   13.2314 C.ar    1  UNL1        0.0185
     36 C          61.1422   80.6376   13.9723 C.ar    1  UNL1        0.0870
     37 CL         59.8220   79.9659   14.2089 Cl      1  UNL1       -0.0752
     38 S          61.5280   82.0113   14.4351 S.2     1  UNL1       -0.0750
@<TRIPOS>BOND
     1     1     2    2
     2     2     8    1
     3     8     9    1
     4     9    10    1
     5    10    11    1
     6    11    14    1
     7    14    15   ar
     8    15    16   ar
     9    16    17   ar
    10    17    18   ar
    11    18    19   ar
    12    11    12    1
    13    12    13    1
    14     2     3   am
    15     3     4    1
    16     4     5    1
    17     5     6    1
    18     6    20    1
    19    20    21    1
    20    21    23    1
    21    23    24    2
    22    23    25    2
    23    23    26    1
    24    26    27    2
    25    27    28    1
    26    28    29   ar
    27    29    30   ar
    28    30    31   ar
    29    31    33    1
    30    33    34   ar
    31    34    35   ar
    32    35    36   ar
    33    36    37    1
    34    36    38   ar
    35    31    32   ar
    36     6     7    1
    37    13     8    1
    38     7     3    1
    39    19    14   ar
    40    32    28   ar
    41    38    33   ar
    42    21    22    1
@<TRIPOS>MOLECULE
*****
 38 42 0 0 0
SMALL
GASTEIGER

@<TRIPOS>ATOM
      1 O          62.5801   88.6347   13.0315 O.2     1  UNL1       -0.2749
      2 C          62.4374   89.3555   11.7238 C.2     1  UNL1        0.2253
      3 N          61.4482   88.8722   10.7051 N.am    1  UNL1       -0.2795
      4 C          60.5379   87.6891   10.8521 C.3     1  UNL1        0.0935
      5 C          59.7227   87.5729    9.5984 C.3     1  UNL1        0.0246
      6 C          60.1291   88.6842    8.6765 C.3     1  UNL1        0.0390
      7 C          61.1955   89.4872    9.3605 C.3     1  UNL1        0.0948
      8 C          63.2841   90.5596   11.4348 C.3     1  UNL1        0.0801
      9 C          64.1854   91.1151   12.4973 C.3     1  UNL1        0.0305
     10 C          65.0320   92.3192   12.2083 C.3     1  UNL1        0.0913
     11 N          64.9772   92.9677   10.8568 N.pl3   1  UNL1       -0.3074
     12 C          64.0758   92.4121    9.7944 C.3     1  UNL1        0.0913
     13 C          63.2293   91.2081   10.0834 C.3     1  UNL1        0.0305
     14 C          65.8238   94.1718   10.5679 C.ar    1  UNL1        0.0510
     15 C          65.7238   95.3863   11.4424 C.ar    1  UNL1        0.0352
     16 C          66.5704   96.5904   11.1534 C.ar    1  UNL1        0.1002
     17 N          67.5170   96.5799    9.9899 N.ar    1  UNL1       -0.2422
     18 C          67.6170   95.3652    9.1154 C.ar    1  UNL1        0.1002
     19 C          66.7704   94.1612    9.4044 C.ar    1  UNL1        0.0352
     20 C          59.5676   88.9464    7.3105 C.3     1  UNL1        0.0932
     21 N          58.9580   90.2797    6.9934 N.3     1  UNL1       -0.1793
     22 H          59.3635   90.9514    7.6453 H       1  UNL1        0.1488
     23 S          59.1067   90.8650    5.6204 S.O2    1  UNL1        0.0615
     24 O          57.6531   91.2350    5.6206 O.2     1  UNL1       -0.1530
     25 O          60.5605   90.4950    5.6202 O.2     1  UNL1       -0.1530
     26 C          59.2555   91.4502    4.2473 C.2     1  UNL1        0.1409
     27 C          60.4646   92.2708    3.9087 C.2     1  UNL1        0.0277
     28 C          60.6134   92.8561    2.5357 C.ar    1  UNL1        0.0309
     29 C          59.4942   93.2880    1.6352 C.ar    1  UNL1        0.0070
     30 C          60.0968   93.8111    0.3650 C.ar    1  UNL1        0.0075
     31 C          61.5884   93.7024    0.4805 C.ar    1  UNL1        0.0355
     32 S          61.9077   93.1122    1.8220 S.2     1  UNL1       -0.0864
     33 C          62.5856   94.1121   -0.5625 C.ar    1  UNL1        0.0363
     34 C          62.7722   93.4689   -1.9047 C.ar    1  UNL1        0.0084
     35 C          63.8732   94.1962   -2.6181 C.ar    1  UNL1        0.0185
     36 C          64.3670   95.2888   -1.7168 C.ar    1  UNL1        0.0870
     37 CL         65.4640   96.2626   -2.0308 Cl      1  UNL1       -0.0752
     38 S          63.5711   95.2368   -0.4464 S.2     1  UNL1       -0.0750
@<TRIPOS>BOND
     1     1     2    2
     2     2     8    1
     3     8     9    1
     4     9    10    1
     5    10    11    1
     6    11    14    1
     7    14    15   ar
     8    15    16   ar
     9    16    17   ar
    10    17    18   ar
    11    18    19   ar
    12    11    12    1
    13    12    13    1
    14     2     3   am
    15     3     4    1
    16     4     5    1
    17     5     6    1
    18     6    20    1
    19    20    21    1
    20    21    23    1
    21    23    24    2
    22    23    25    2
    23    23    26    1
    24    26    27    2
    25    27    28    1
    26    28    29   ar
    27    29    30   ar
    28    30    31   ar
    29    31    33    1
    30    33    34   ar
    31    34    35   ar
    32    35    36   ar
    33    36    37    1
    34    36    38   ar
    35    31    32   ar
    36     6     7    1
    37    13     8    1
    38     7     3    1
    39    19    14   ar
    40    32    28   ar
    41    38    33   ar
    42    21    22    1
@<TRIPOS>MOLECULE
*****
 38 42 0 0 0
SMALL
GASTEIGER

@<TRIPOS>ATOM
      1 O          66.1057   92.9973   10.9731 O.2     1  UNL1       -0.2749
      2 C          65.1821   92.1895   11.8359 C.2     1  UNL1        0.2253
      3 N          65.3029   92.2540   13.3296 N.am    1  UNL1       -0.2795
      4 C          66.2933   93.0766   14.0993 C.3     1  UNL1        0.0935
      5 C          66.0571   92.8382   15.5613 C.3     1  UNL1        0.0246
      6 C          64.9208   91.8681   15.6951 C.3     1  UNL1        0.0390
      7 C          64.4547   91.5071   14.3159 C.3     1  UNL1        0.0948
      8 C          64.1375   91.3172   11.2049 C.3     1  UNL1        0.0801
      9 C          63.5026   91.7254    9.9086 C.3     1  UNL1        0.0305
     10 C          62.4581   90.8531    9.2777 C.3     1  UNL1        0.0913
     11 N          62.0485   89.5727    9.9430 N.pl3   1  UNL1       -0.3074
     12 C          62.6834   89.1645   11.2392 C.3     1  UNL1        0.0913
     13 C          63.7279   90.0367   11.8701 C.3     1  UNL1        0.0305
     14 C          61.0040   88.7004    9.3120 C.ar    1  UNL1        0.0510
     15 C          60.9289   87.2447    9.6658 C.ar    1  UNL1        0.0352
     16 C          59.8843   86.3724    9.0347 C.ar    1  UNL1        0.1002
     17 N          58.9149   86.9559    8.0500 N.ar    1  UNL1       -0.2422
     18 C          58.9901   88.4117    7.6962 C.ar    1  UNL1        0.1002
     19 C          60.0346   89.2839    8.3272 C.ar    1  UNL1        0.0352
     20 C          64.3507   91.3501   16.9822 C.3     1  UNL1        0.0932
     21 N          63.0329   90.6339   16.9843 N.3     1  UNL1       -0.1793
     22 H          62.4073   91.1665   16.3798 H       1  UNL1        0.1488
     23 S          62.9553   89.2046   16.5358 S.O2    1  UNL1        0.0615
     24 O          63.3598   88.7522   17.9076 O.2     1  UNL1       -0.1530
     25 O          62.5508   89.6570   15.1640 O.2     1  UNL1       -0.1530
     26 C          62.8778   87.7753   16.0874 C.2     1  UNL1        0.1409
     27 C          63.9687   87.1961   15.2363 C.2     1  UNL1        0.0277
     28 C          63.8912   85.7668   14.7878 C.ar    1  UNL1        0.0309
     29 C          63.8294   84.5641   15.6821 C.ar    1  UNL1        0.0070
     30 C          63.7619   83.3433   14.8131 C.ar    1  UNL1        0.0075
     31 C          63.7821   83.7915   13.3817 C.ar    1  UNL1        0.0355
     32 S          63.8620   85.2892   13.3661 S.2     1  UNL1       -0.0864
     33 C          63.7314   82.8986   12.1775 C.ar    1  UNL1        0.0363
     34 C          64.3247   83.1974   10.8326 C.ar    1  UNL1        0.0084
     35 C          64.0383   82.0336    9.9307 C.ar    1  UNL1        0.0185
     36 C          63.2680   81.0155   10.7182 C.ar    1  UNL1        0.0870
     37 CL         62.7741   79.6946   10.2069 Cl      1  UNL1       -0.0752
     38 S          63.0783   81.5501   12.1068 S.2     1  UNL1       -0.0750
@<TRIPOS>BOND
     1     1     2    2
     2     2     8    1
     3     8     9    1
     4     9    10    1
     5    10    11    1
     6    11    14    1
     7    14    15   ar
     8    15    16   ar
     9    16    17   ar
    10    17    18   ar
    11    18    19   ar
    12    11    12    1
    13    12    13    1
    14     2     3   am
    15     3     4    1
    16     4     5    1
    17     5     6    1
    18     6    20    1
    19    20    21    1
    20    21    23    1
    21    23    24    2
    22    23    25    2
    23    23    26    1
    24    26    27    2
    25    27    28    1
    26    28    29   ar
    27    29    30   ar
    28    30    31   ar
    29    31    33    1
    30    33    34   ar
    31    34    35   ar
    32    35    36   ar
    33    36    37    1
    34    36    38   ar
    35    31    32   ar
    36     6     7    1
    37    13     8    1
    38     7     3    1
    39    19    14   ar
    40    32    28   ar
    41    38    33   ar
    42    21    22    1
@<TRIPOS>MOLECULE
*****
 38 42 0 0 0
SMALL
GASTEIGER

@<TRIPOS>ATOM
      1 O          63.1598   90.3702   16.8669 O.2     1  UNL1       -0.2749
      2 C          63.8287   89.6408   15.7397 C.2     1  UNL1        0.2253
      3 N          63.8516   88.1411   15.7256 N.am    1  UNL1       -0.2795
      4 C          63.2508   87.2404   16.7638 C.3     1  UNL1        0.0935
      5 C          63.5072   85.8214   16.3507 C.3     1  UNL1        0.0246
      6 C          64.2665   85.8450   15.0572 C.3     1  UNL1        0.0390
      7 C          64.4793   87.2787   14.6709 C.3     1  UNL1        0.0948
      8 C          64.4748   90.4113   14.6265 C.3     1  UNL1        0.0801
      9 C          63.7904   90.5239   13.2966 C.3     1  UNL1        0.0305
     10 C          64.4365   91.2943   12.1835 C.3     1  UNL1        0.0913
     11 N          65.7671   91.9521   12.4004 N.pl3   1  UNL1       -0.3074
     12 C          66.4515   91.8395   13.7304 C.3     1  UNL1        0.0913
     13 C          65.8053   91.0691   14.8435 C.3     1  UNL1        0.0305
     14 C          66.4132   92.7226   11.2873 C.ar    1  UNL1        0.0510
     15 C          67.4246   92.0562   10.4025 C.ar    1  UNL1        0.0352
     16 C          68.0708   92.8267    9.2894 C.ar    1  UNL1        0.1002
     17 N          67.7053   94.2635    9.0611 N.ar    1  UNL1       -0.2422
     18 C          66.6938   94.9298    9.9459 C.ar    1  UNL1        0.1002
     19 C          66.0477   94.1593   11.0590 C.ar    1  UNL1        0.0352
     20 C          64.7313   84.6456   14.2856 C.3     1  UNL1        0.0932
     21 N          63.8849   84.0924   13.1778 N.3     1  UNL1       -0.1793
     22 H          63.3102   83.3553   13.5863 H       1  UNL1        0.1488
     23 S          62.9569   84.9953   12.4204 S.O2    1  UNL1        0.0615
     24 O          63.8736   84.9424   11.2343 O.2     1  UNL1       -0.1530
     25 O          62.0402   85.0481   13.6066 O.2     1  UNL1       -0.1530
     26 C          62.0290   85.8982   11.6629 C.2     1  UNL1        0.1409
     27 C          62.3411   87.3599   11.5378 C.2     1  UNL1        0.0277
     28 C          61.4132   88.2629   10.7803 C.ar    1  UNL1        0.0309
     29 C          60.5545   89.3412   11.3717 C.ar    1  UNL1        0.0070
     30 C          59.7917   89.9908   10.2553 C.ar    1  UNL1        0.0075
     31 C          60.1791   89.3138    8.9739 C.ar    1  UNL1        0.0355
     32 S          61.1812   88.2460    9.2984 S.2     1  UNL1       -0.0864
     33 C          59.6561   89.6465    7.6080 C.ar    1  UNL1        0.0363
     34 C          58.5644   88.9191    6.8806 C.ar    1  UNL1        0.0084
     35 C          58.3665   89.5881    5.5527 C.ar    1  UNL1        0.0185
     36 C          59.3360   90.7289    5.4594 C.ar    1  UNL1        0.0870
     37 CL         59.4827   91.6687    4.2995 Cl      1  UNL1       -0.0752
     38 S          60.1329   90.7650    6.7297 S.2     1  UNL1       -0.0750
@<TRIPOS>BOND
     1     1     2    2
     2     2     8    1
     3     8     9    1
     4     9    10    1
     5    10    11    1
     6    11    14    1
     7    14    15   ar
     8    15    16   ar
     9    16    17   ar
    10    17    18   ar
    11    18    19   ar
    12    11    12    1
    13    12    13    1
    14     2     3   am
    15     3     4    1
    16     4     5    1
    17     5     6    1
    18     6    20    1
    19    20    21    1
    20    21    23    1
    21    23    24    2
    22    23    25    2
    23    23    26    1
    24    26    27    2
    25    27    28    1
    26    28    29   ar
    27    29    30   ar
    28    30    31   ar
    29    31    33    1
    30    33    34   ar
    31    34    35   ar
    32    35    36   ar
    33    36    37    1
    34    36    38   ar
    35    31    32   ar
    36     6     7    1
    37    13     8    1
    38     7     3    1
    39    19    14   ar
    40    32    28   ar
    41    38    33   ar
    42    21    22    1
