@<TRIPOS>MOLECULE
*****
 39 42 0 0 0
SMALL
GASTEIGER

@<TRIPOS>ATOM
      1 C          64.2610   90.8206   12.8879 C.3     1  UNL1        0.1532
      2 N          66.1959   91.2504   14.5676 N.am    1  UNL1       -0.2945
      3 C          65.3101   91.7298   13.4561 C.2     1  UNL1        0.2413
      4 O          65.4734   93.1183   12.9127 O.2     1  UNL1       -0.2733
      5 H          66.0888   90.3391   14.9242 H       1  UNL1        0.1503
      6 C          67.2450   92.1596   15.1357 C.3     1  UNL1        0.1365
      7 C          67.9150   93.1380   16.0543 C.3     1  UNL1        0.0353
      8 C          66.5177   92.6746   16.3423 C.3     1  UNL1        0.0353
      9 N          69.4283   91.7612   13.1172 N.1     1  UNL1       -0.1943
     10 C          68.3366   91.9604   14.1265 C.1     1  UNL1        0.0896
     11 N          64.3505   89.3401   13.1116 N.am    1  UNL1       -0.2932
     12 C          63.7153   88.7249   14.3234 C.2     1  UNL1        0.2673
     13 O          62.9906   89.5902   15.3112 O.2     1  UNL1       -0.2684
     14 H          64.8262   88.7721   12.4632 H       1  UNL1        0.1502
     15 C          63.8049   87.2444   14.5471 C.ar    1  UNL1        0.1767
     16 C          64.3115   86.5691   15.7870 C.ar    1  UNL1        0.1476
     17 N          64.2233   85.0866   15.5764 N.ar    1  UNL1       -0.1446
     18 N          63.6621   84.8456   14.2064 N.ar    1  UNL1       -0.1477
     19 N          63.4035   86.1792   13.5701 N.ar    1  UNL1       -0.1417
     20 C          63.4047   83.5062   13.5821 C.ar    1  UNL1        0.1030
     21 C          62.7070   82.4347   14.3664 C.ar    1  UNL1        0.0232
     22 C          62.4496   81.0953   13.7421 C.ar    1  UNL1        0.0312
     23 C          62.8899   80.8274   12.3334 C.ar    1  UNL1        0.1402
     24 F          62.6325   79.4880   11.7090 F       1  UNL1       -0.2042
     25 C          63.5877   81.8989   11.5491 C.ar    1  UNL1        0.0312
     26 C          63.8451   83.2383   12.1734 C.ar    1  UNL1        0.0232
     27 C          63.1224   91.3919   12.0960 C.3     1  UNL1        0.0553
     28 C          62.1545   90.4765   11.4065 C.ar    1  UNL1       -0.0190
     29 C          62.4226   90.0215   10.0026 C.ar    1  UNL1       -0.0010
     30 C          61.4548   89.1062    9.3132 C.ar    1  UNL1        0.0377
     31 C          60.2188   88.6458   10.0276 C.ar    1  UNL1        0.1572
     32 C          59.9507   89.1009   11.4316 C.ar    1  UNL1        0.0915
     33 CL         58.7147   88.6405   12.1460 Cl      1  UNL1       -0.0791
     34 C          60.9185   90.0162   12.1210 C.ar    1  UNL1        0.0103
     35 O          59.2510   87.7304    9.3381 O.3     1  UNL1       -0.4036
     36 C          59.7569   86.6612    8.4158 C.3     1  UNL1        0.5753
     37 F          60.2629   85.5919    7.4935 F       1  UNL1       -0.1328
     38 F          60.4961   86.0270    9.5566 F       1  UNL1       -0.1328
     39 F          59.0177   87.2954    7.2751 F       1  UNL1       -0.1328
@<TRIPOS>BOND
     1     9    10    3
     2    10     6    1
     3     6     2    1
     4     2     3   am
     5     3     4    2
     6     3     1    1
     7     1    27    1
     8    27    28    1
     9    28    29   ar
    10    29    30   ar
    11    30    31   ar
    12    31    35    1
    13    35    36    1
    14    36    37    1
    15    36    38    1
    16    36    39    1
    17    31    32   ar
    18    32    33    1
    19    32    34   ar
    20     1    11    1
    21    11    12   am
    22    12    13    2
    23    12    15    1
    24    15    16   ar
    25    16    17   ar
    26    17    18   ar
    27    18    20    1
    28    20    21   ar
    29    21    22   ar
    30    22    23   ar
    31    23    24    1
    32    23    25   ar
    33    25    26   ar
    34    18    19   ar
    35     6     7    1
    36     7     8    1
    37     8     6    1
    38    34    28   ar
    39    19    15   ar
    40    26    20   ar
    41     2     5    1
    42    11    14    1
@<TRIPOS>MOLECULE
*****
 39 42 0 0 0
SMALL
GASTEIGER

@<TRIPOS>ATOM
      1 C          64.0693   90.3820   13.2980 C.3     1  UNL1        0.1532
      2 N          66.3191   91.6227   13.6839 N.am    1  UNL1       -0.2945
      3 C          64.9498   91.2376   14.1598 C.2     1  UNL1        0.2413
      4 O          64.4608   91.7081   15.4976 O.2     1  UNL1       -0.2733
      5 H          66.6400   91.3139   12.8059 H       1  UNL1        0.1503
      6 C          67.1995   92.4783   14.5458 C.3     1  UNL1        0.1365
      7 C          68.2054   92.8623   15.5902 C.3     1  UNL1        0.0353
      8 C          67.8665   91.4176   15.3706 C.3     1  UNL1        0.0353
      9 N          66.4772   95.1937   13.4948 N.1     1  UNL1       -0.1943
     10 C          66.8384   93.8359   14.0203 C.1     1  UNL1        0.0896
     11 N          64.1378   88.8875   13.4064 N.am    1  UNL1       -0.2932
     12 C          63.6857   88.2051   14.6634 C.2     1  UNL1        0.2673
     13 O          63.1651   89.0173   15.8120 O.2     1  UNL1       -0.2684
     14 H          64.4795   88.3544   12.6525 H       1  UNL1        0.1502
     15 C          63.7542   86.7106   14.7718 C.ar    1  UNL1        0.1767
     16 C          64.2153   85.9337   15.9691 C.ar    1  UNL1        0.1476
     17 N          64.1197   84.4735   15.6392 N.ar    1  UNL1       -0.1446
     18 N          63.5995   84.3481   14.2379 N.ar    1  UNL1       -0.1477
     19 N          63.3735   85.7307   13.7017 N.ar    1  UNL1       -0.1417
     20 C          63.3491   83.0653   13.5019 C.ar    1  UNL1        0.1030
     21 C          62.8012   81.8756   14.2331 C.ar    1  UNL1        0.0232
     22 C          62.5508   80.5928   13.4971 C.ar    1  UNL1        0.0312
     23 C          62.8484   80.4996   12.0299 C.ar    1  UNL1        0.1402
     24 F          62.5980   79.2168   11.2938 F       1  UNL1       -0.2042
     25 C          63.3963   81.6893   11.2987 C.ar    1  UNL1        0.0312
     26 C          63.6467   82.9721   12.0347 C.ar    1  UNL1        0.0232
     27 C          63.1203   91.0209   12.3278 C.3     1  UNL1        0.0553
     28 C          62.1818   90.1692   11.5254 C.ar    1  UNL1       -0.0190
     29 C          60.7159   90.4862   11.5015 C.ar    1  UNL1       -0.0010
     30 C          59.7774   89.6346   10.6991 C.ar    1  UNL1        0.0377
     31 C          60.3048   88.4660    9.9205 C.ar    1  UNL1        0.1572
     32 C          61.7707   88.1490    9.9444 C.ar    1  UNL1        0.0915
     33 CL         62.2981   86.9804    9.1658 Cl      1  UNL1       -0.0791
     34 C          62.7092   89.0006   10.7468 C.ar    1  UNL1        0.0103
     35 O          59.3662   87.6143    9.1181 O.3     1  UNL1       -0.4036
     36 C          59.1857   87.8739    7.6518 C.3     1  UNL1        0.5753
     37 F          59.0051   88.1336    6.1855 F       1  UNL1       -0.1328
     38 F          59.6706   89.2806    7.8411 F       1  UNL1       -0.1328
     39 F          58.7007   86.4672    7.4625 F       1  UNL1       -0.1328
@<TRIPOS>BOND
     1     9    10    3
     2    10     6    1
     3     6     2    1
     4     2     3   am
     5     3     4    2
     6     3     1    1
     7     1    27    1
     8    27    28    1
     9    28    29   ar
    10    29    30   ar
    11    30    31   ar
    12    31    35    1
    13    35    36    1
    14    36    37    1
    15    36    38    1
    16    36    39    1
    17    31    32   ar
    18    32    33    1
    19    32    34   ar
    20     1    11    1
    21    11    12   am
    22    12    13    2
    23    12    15    1
    24    15    16   ar
    25    16    17   ar
    26    17    18   ar
    27    18    20    1
    28    20    21   ar
    29    21    22   ar
    30    22    23   ar
    31    23    24    1
    32    23    25   ar
    33    25    26   ar
    34    18    19   ar
    35     6     7    1
    36     7     8    1
    37     8     6    1
    38    34    28   ar
    39    19    15   ar
    40    26    20   ar
    41     2     5    1
    42    11    14    1
@<TRIPOS>MOLECULE
*****
 39 42 0 0 0
SMALL
GASTEIGER

@<TRIPOS>ATOM
      1 C          60.7861   88.7989    9.3445 C.3     1  UNL1        0.1532
      2 N          62.8108   89.4649   10.8301 N.am    1  UNL1       -0.2945
      3 C          61.3299   89.3174   10.6428 C.2     1  UNL1        0.2413
      4 O          60.3927   89.6884   11.7536 O.2     1  UNL1       -0.2733
      5 H          63.4259   89.2213   10.1010 H       1  UNL1        0.1503
      6 C          63.3545   89.9834   12.1284 C.3     1  UNL1        0.1365
      7 C          63.8360   90.9504   13.1691 C.3     1  UNL1        0.0353
      8 C          63.3641   91.4549   11.8376 C.3     1  UNL1        0.0353
      9 N          63.7131   87.4006   13.6118 N.1     1  UNL1       -0.1943
     10 C          63.5338   88.6920   12.8700 C.1     1  UNL1        0.0896
     11 N          60.6043   89.7297    8.1824 N.am    1  UNL1       -0.2932
     12 C          59.5314   89.4629    7.1685 C.2     1  UNL1        0.2673
     13 O          58.6405   88.2653    7.3167 O.2     1  UNL1       -0.2684
     14 H          61.1891   90.5157    8.0850 H       1  UNL1        0.1502
     15 C          59.3496   90.3937    6.0064 C.ar    1  UNL1        0.1767
     16 C          58.0485   90.9732    5.5361 C.ar    1  UNL1        0.1476
     17 N          58.3317   91.8461    4.3495 N.ar    1  UNL1       -0.1446
     18 N          59.8079   91.8060    4.0865 N.ar    1  UNL1       -0.1477
     19 N          60.4371   90.9084    5.1104 N.ar    1  UNL1       -0.1417
     20 C          60.5285   92.5355    2.9917 C.ar    1  UNL1        0.1030
     21 C          59.7736   93.4605    2.0835 C.ar    1  UNL1        0.0232
     22 C          60.4942   94.1899    0.9887 C.ar    1  UNL1        0.0312
     23 C          61.9697   93.9945    0.8021 C.ar    1  UNL1        0.1402
     24 F          62.6904   94.7240   -0.2927 F       1  UNL1       -0.2042
     25 C          62.7245   93.0696    1.7103 C.ar    1  UNL1        0.0312
     26 C          62.0039   92.3401    2.8051 C.ar    1  UNL1        0.0232
     27 C          60.4242   87.3496    9.2084 C.3     1  UNL1        0.0553
     28 C          61.4066   86.2901    9.6116 C.ar    1  UNL1       -0.0190
     29 C          62.3269   85.6924    8.5890 C.ar    1  UNL1       -0.0010
     30 C          63.3092   84.6329    8.9923 C.ar    1  UNL1        0.0377
     31 C          63.3713   84.1713   10.4181 C.ar    1  UNL1        0.1572
     32 C          62.4510   84.7691   11.4407 C.ar    1  UNL1        0.0915
     33 CL         62.5130   84.3074   12.8665 Cl      1  UNL1       -0.0791
     34 C          61.4687   85.8285   11.0374 C.ar    1  UNL1        0.0103
     35 O          64.3537   83.1118   10.8213 O.3     1  UNL1       -0.4036
     36 C          63.8794   81.8838   11.5403 C.3     1  UNL1        0.5753
     37 F          63.4050   80.6557   12.2593 F       1  UNL1       -0.1328
     38 F          62.9899   81.5481   10.3801 F       1  UNL1       -0.1328
     39 F          64.7688   82.2196   12.7005 F       1  UNL1       -0.1328
@<TRIPOS>BOND
     1     9    10    3
     2    10     6    1
     3     6     2    1
     4     2     3   am
     5     3     4    2
     6     3     1    1
     7     1    27    1
     8    27    28    1
     9    28    29   ar
    10    29    30   ar
    11    30    31   ar
    12    31    35    1
    13    35    36    1
    14    36    37    1
    15    36    38    1
    16    36    39    1
    17    31    32   ar
    18    32    33    1
    19    32    34   ar
    20     1    11    1
    21    11    12   am
    22    12    13    2
    23    12    15    1
    24    15    16   ar
    25    16    17   ar
    26    17    18   ar
    27    18    20    1
    28    20    21   ar
    29    21    22   ar
    30    22    23   ar
    31    23    24    1
    32    23    25   ar
    33    25    26   ar
    34    18    19   ar
    35     6     7    1
    36     7     8    1
    37     8     6    1
    38    34    28   ar
    39    19    15   ar
    40    26    20   ar
    41     2     5    1
    42    11    14    1
@<TRIPOS>MOLECULE
*****
 39 42 0 0 0
SMALL
GASTEIGER

@<TRIPOS>ATOM
      1 C          62.9592   88.3870   12.3752 C.3     1  UNL1        0.1532
      2 N          62.7665   85.7969   12.3096 N.am    1  UNL1       -0.2945
      3 C          63.3236   87.0427   12.9321 C.2     1  UNL1        0.2413
      4 O          64.2451   86.9443   14.1116 O.2     1  UNL1       -0.2733
      5 H          62.1617   85.8615   11.5355 H       1  UNL1        0.1503
      6 C          63.1310   84.4527   12.8666 C.3     1  UNL1        0.1365
      7 C          63.6972   83.0659   12.9452 C.3     1  UNL1        0.0353
      8 C          63.8384   83.8632   11.6825 C.3     1  UNL1        0.0353
      9 N          61.9694   84.6980   15.6217 N.1     1  UNL1       -0.1943
     10 C          62.5502   84.5753   14.2441 C.1     1  UNL1        0.0896
     11 N          62.3764   88.4950   10.9972 N.am    1  UNL1       -0.2932
     12 C          60.8910   88.4179   10.8029 C.2     1  UNL1        0.2673
     13 O          59.9884   88.2328   11.9866 O.2     1  UNL1       -0.2684
     14 H          62.9688   88.6165   10.2203 H       1  UNL1        0.1502
     15 C          60.3083   88.5259    9.4250 C.ar    1  UNL1        0.1767
     16 C          59.5326   87.4597    8.7097 C.ar    1  UNL1        0.1476
     17 N          59.1438   87.9939    7.3630 N.ar    1  UNL1       -0.1446
     18 N          59.6792   89.3902    7.2460 N.ar    1  UNL1       -0.1477
     19 N          60.3990   89.7190    8.5203 N.ar    1  UNL1       -0.1417
     20 C          59.5225   90.2982    6.0624 C.ar    1  UNL1        0.1030
     21 C          60.7277   90.7171    5.2737 C.ar    1  UNL1        0.0232
     22 C          60.5710   91.6252    4.0901 C.ar    1  UNL1        0.0312
     23 C          59.2091   92.1144    3.6953 C.ar    1  UNL1        0.1402
     24 F          59.0524   93.0226    2.5117 F       1  UNL1       -0.2042
     25 C          58.0040   91.6956    4.4841 C.ar    1  UNL1        0.0312
     26 C          58.1607   90.7875    5.6677 C.ar    1  UNL1        0.0232
     27 C          63.1775   89.6232   13.1961 C.3     1  UNL1        0.0553
     28 C          64.0951   90.7010   12.6996 C.ar    1  UNL1       -0.0190
     29 C          63.8900   91.2912   11.3359 C.ar    1  UNL1       -0.0010
     30 C          64.8076   92.3689   10.8395 C.ar    1  UNL1        0.0377
     31 C          65.9302   92.8564   11.7066 C.ar    1  UNL1        0.1572
     32 C          66.1353   92.2663   13.0703 C.ar    1  UNL1        0.0915
     33 CL         67.2579   92.7538   13.9375 Cl      1  UNL1       -0.0791
     34 C          65.2177   91.1886   13.5668 C.ar    1  UNL1        0.0103
     35 O          66.8479   93.9342   11.2101 O.3     1  UNL1       -0.4036
     36 C          67.3753   93.8825    9.8069 C.3     1  UNL1        0.5753
     37 F          67.9028   93.8308    8.4036 F       1  UNL1       -0.1328
     38 F          66.7433   95.2122    9.5203 F       1  UNL1       -0.1328
     39 F          68.0074   92.5527   10.0935 F       1  UNL1       -0.1328
@<TRIPOS>BOND
     1     9    10    3
     2    10     6    1
     3     6     2    1
     4     2     3   am
     5     3     4    2
     6     3     1    1
     7     1    27    1
     8    27    28    1
     9    28    29   ar
    10    29    30   ar
    11    30    31   ar
    12    31    35    1
    13    35    36    1
    14    36    37    1
    15    36    38    1
    16    36    39    1
    17    31    32   ar
    18    32    33    1
    19    32    34   ar
    20     1    11    1
    21    11    12   am
    22    12    13    2
    23    12    15    1
    24    15    16   ar
    25    16    17   ar
    26    17    18   ar
    27    18    20    1
    28    20    21   ar
    29    21    22   ar
    30    22    23   ar
    31    23    24    1
    32    23    25   ar
    33    25    26   ar
    34    18    19   ar
    35     6     7    1
    36     7     8    1
    37     8     6    1
    38    34    28   ar
    39    19    15   ar
    40    26    20   ar
    41     2     5    1
    42    11    14    1
@<TRIPOS>MOLECULE
*****
 39 42 0 0 0
SMALL
GASTEIGER

@<TRIPOS>ATOM
      1 C          60.9358   88.8134    9.4994 C.3     1  UNL1        0.1532
      2 N          62.5469   86.7812    9.6562 N.am    1  UNL1       -0.2945
      3 C          61.1944   87.3449    9.3357 C.2     1  UNL1        0.2413
      4 O          60.1003   86.4402    8.8515 O.2     1  UNL1       -0.2733
      5 H          63.2650   87.3750    9.9740 H       1  UNL1        0.1503
      6 C          62.8054   85.3128    9.4924 C.3     1  UNL1        0.1365
      7 C          63.1107   84.0002    8.8338 C.3     1  UNL1        0.0353
      8 C          63.0299   85.2515    8.0106 C.3     1  UNL1        0.0353
      9 N          62.5361   84.4154   12.3424 N.1     1  UNL1       -0.1943
     10 C          62.6708   84.8641   10.9174 C.1     1  UNL1        0.0896
     11 N          60.7385   89.6795    8.2907 N.am    1  UNL1       -0.2932
     12 C          59.5673   89.4452    7.3833 C.2     1  UNL1        0.2673
     13 O          58.5934   88.3448    7.6845 O.2     1  UNL1       -0.2684
     14 H          61.3776   90.4018    8.0930 H       1  UNL1        0.1502
     15 C          59.3699   90.3113    6.1746 C.ar    1  UNL1        0.1767
     16 C          58.0563   90.8202    5.6595 C.ar    1  UNL1        0.1476
     17 N          58.3261   91.6440    4.4353 N.ar    1  UNL1       -0.1446
     18 N          59.8065   91.6442    4.1938 N.ar    1  UNL1       -0.1477
     19 N          60.4517   90.8206    5.2687 N.ar    1  UNL1       -0.1417
     20 C          60.5170   92.3450    3.0740 C.ar    1  UNL1        0.1030
     21 C          62.0094   92.2494    2.9564 C.ar    1  UNL1        0.0232
     22 C          62.7199   92.9502    1.8367 C.ar    1  UNL1        0.0312
     23 C          61.9382   93.7467    0.8345 C.ar    1  UNL1        0.1402
     24 F          62.6487   94.4476   -0.2854 F       1  UNL1       -0.2042
     25 C          60.4458   93.8423    0.9520 C.ar    1  UNL1        0.0312
     26 C          59.7353   93.1415    2.0718 C.ar    1  UNL1        0.0232
     27 C          60.8746   89.4157   10.8718 C.3     1  UNL1        0.0553
     28 C          62.0506   90.1751   11.4108 C.ar    1  UNL1       -0.0190
     29 C          62.8907   91.0092   10.4897 C.ar    1  UNL1       -0.0010
     30 C          64.0666   91.7686   11.0287 C.ar    1  UNL1        0.0377
     31 C          64.4024   91.6938   12.4887 C.ar    1  UNL1        0.1572
     32 C          63.5623   90.8597   13.4097 C.ar    1  UNL1        0.0915
     33 CL         63.8980   90.7850   14.8698 Cl      1  UNL1       -0.0791
     34 C          62.3863   90.1004   12.8708 C.ar    1  UNL1        0.0103
     35 O          65.5784   92.4532   13.0277 O.3     1  UNL1       -0.4036
     36 C          66.9699   91.9421   12.7989 C.3     1  UNL1        0.5753
     37 F          68.3616   91.4310   12.5702 F       1  UNL1       -0.1328
     38 F          67.0142   92.6533   11.4791 F       1  UNL1       -0.1328
     39 F          66.9257   91.2309   14.1188 F       1  UNL1       -0.1328
@<TRIPOS>BOND
     1     9    10    3
     2    10     6    1
     3     6     2    1
     4     2     3   am
     5     3     4    2
     6     3     1    1
     7     1    27    1
     8    27    28    1
     9    28    29   ar
    10    29    30   ar
    11    30    31   ar
    12    31    35    1
    13    35    36    1
    14    36    37    1
    15    36    38    1
    16    36    39    1
    17    31    32   ar
    18    32    33    1
    19    32    34   ar
    20     1    11    1
    21    11    12   am
    22    12    13    2
    23    12    15    1
    24    15    16   ar
    25    16    17   ar
    26    17    18   ar
    27    18    20    1
    28    20    21   ar
    29    21    22   ar
    30    22    23   ar
    31    23    24    1
    32    23    25   ar
    33    25    26   ar
    34    18    19   ar
    35     6     7    1
    36     7     8    1
    37     8     6    1
    38    34    28   ar
    39    19    15   ar
    40    26    20   ar
    41     2     5    1
    42    11    14    1
@<TRIPOS>MOLECULE
*****
 39 42 0 0 0
SMALL
GASTEIGER

@<TRIPOS>ATOM
      1 C          62.0710   89.8523   10.1861 C.3     1  UNL1        0.1532
      2 N          60.8507   89.2511    7.9725 N.am    1  UNL1       -0.2945
      3 C          60.8315   89.8643    9.3413 C.2     1  UNL1        0.2413
      4 O          59.5727   90.4896    9.8653 O.2     1  UNL1       -0.2733
      5 H          61.6769   88.8407    7.6286 H       1  UNL1        0.1503
      6 C          59.6113   89.2631    7.1278 C.3     1  UNL1        0.1365
      7 C          58.5920   89.7207    6.1270 C.3     1  UNL1        0.0353
      8 C          59.8148   90.5503    6.3850 C.3     1  UNL1        0.0353
      9 N          58.3433   86.6971    8.0266 N.1     1  UNL1       -0.1943
     10 C          58.9773   87.9801    7.5772 C.1     1  UNL1        0.0896
     11 N          62.6540   88.5482   10.6438 N.am    1  UNL1       -0.2932
     12 C          61.7821   87.5344   11.3236 C.2     1  UNL1        0.2673
     13 O          60.3274   87.8246   11.5457 O.2     1  UNL1       -0.2684
     14 H          63.6088   88.3577   10.4980 H       1  UNL1        0.1502
     15 C          62.3651   86.2303   11.7813 C.ar    1  UNL1        0.1767
     16 C          63.3680   86.0509   12.8823 C.ar    1  UNL1        0.1476
     17 N          63.6703   84.5864   12.9999 N.ar    1  UNL1       -0.1446
     18 N          62.8543   83.8606   11.9715 N.ar    1  UNL1       -0.1477
     19 N          62.0476   84.8766   11.2184 N.ar    1  UNL1       -0.1417
     20 C          62.8463   82.3791   11.7374 C.ar    1  UNL1        0.1030
     21 C          63.1943   81.8316   10.3849 C.ar    1  UNL1        0.0232
     22 C          63.1864   80.3500   10.1508 C.ar    1  UNL1        0.0312
     23 C          62.8304   79.4159   11.2691 C.ar    1  UNL1        0.1402
     24 F          62.8224   77.9342   11.0350 F       1  UNL1       -0.2042
     25 C          62.4824   79.9634   12.6216 C.ar    1  UNL1        0.0312
     26 C          62.4904   81.4450   12.8558 C.ar    1  UNL1        0.0232
     27 C          62.7274   91.1443   10.5731 C.3     1  UNL1        0.0553
     28 C          63.7160   91.1750   11.7008 C.ar    1  UNL1       -0.0190
     29 C          64.9612   92.0031   11.5843 C.ar    1  UNL1       -0.0010
     30 C          65.9497   92.0338   12.7120 C.ar    1  UNL1        0.0377
     31 C          65.6931   91.2362   13.9563 C.ar    1  UNL1        0.1572
     32 C          64.4479   90.4081   14.0728 C.ar    1  UNL1        0.0915
     33 CL         64.1912   89.6106   15.3170 Cl      1  UNL1       -0.0791
     34 C          63.4593   90.3774   12.9450 C.ar    1  UNL1        0.0103
     35 O          66.6817   91.2669   15.0840 O.3     1  UNL1       -0.4036
     36 C          67.1856   92.5805   15.6041 C.3     1  UNL1        0.5753
     37 F          67.6895   93.8941   16.1243 F       1  UNL1       -0.1328
     38 F          65.9304   92.7433   16.4090 F       1  UNL1       -0.1328
     39 F          68.4408   92.4177   14.7992 F       1  UNL1       -0.1328
@<TRIPOS>BOND
     1     9    10    3
     2    10     6    1
     3     6     2    1
     4     2     3   am
     5     3     4    2
     6     3     1    1
     7     1    27    1
     8    27    28    1
     9    28    29   ar
    10    29    30   ar
    11    30    31   ar
    12    31    35    1
    13    35    36    1
    14    36    37    1
    15    36    38    1
    16    36    39    1
    17    31    32   ar
    18    32    33    1
    19    32    34   ar
    20     1    11    1
    21    11    12   am
    22    12    13    2
    23    12    15    1
    24    15    16   ar
    25    16    17   ar
    26    17    18   ar
    27    18    20    1
    28    20    21   ar
    29    21    22   ar
    30    22    23   ar
    31    23    24    1
    32    23    25   ar
    33    25    26   ar
    34    18    19   ar
    35     6     7    1
    36     7     8    1
    37     8     6    1
    38    34    28   ar
    39    19    15   ar
    40    26    20   ar
    41     2     5    1
    42    11    14    1
