@<TRIPOS>MOLECULE
*****
 40 41 0 0 0
SMALL
GASTEIGER

@<TRIPOS>ATOM
      1 P          59.6459   87.7688    8.3522 P.3     1  UNL1        0.3697
      2 O          58.6796   86.7474    7.8299 O.2     1  UNL1       -0.2553
      3 O          59.3219   88.6669    7.1953 O.3     1  UNL1       -0.3218
      4 H          58.6629   88.2378    6.6275 H       1  UNL1        0.2198
      5 C          60.6122   88.7902    8.8745 C.3     1  UNL1        0.2579
      6 O          60.1027   90.0220    9.5624 O.3     1  UNL1       -0.3426
      7 C          60.2096   90.1470   11.0533 C.3     1  UNL1        0.1387
      8 C          59.0319   90.6203   11.8526 C.3     1  UNL1        0.0342
      9 C          61.4944   89.7988   11.7450 C.3     1  UNL1        0.1384
     10 N          62.6999   90.6747   11.5734 N.ar    1  UNL1       -0.2918
     11 C          63.1976   91.2461   10.2788 C.ar    1  UNL1        0.1798
     12 N          64.4246   92.0576   10.5716 N.ar    1  UNL1       -0.2195
     13 C          64.6854   91.9878   12.0471 C.ar    1  UNL1        0.1481
     14 C          65.7557   92.5920   12.9069 C.ar    1  UNL1        0.1480
     15 N          66.8216   93.4467   12.2878 N.pl3   1  UNL1       -0.3413
     16 N          65.7600   92.3416   14.3858 N.ar    1  UNL1       -0.2078
     17 C          64.6941   91.4870   15.0050 C.ar    1  UNL1        0.2015
     18 N          63.6238   90.8827   14.1452 N.ar    1  UNL1       -0.2048
     19 C          63.6194   91.1331   12.6663 C.ar    1  UNL1        0.1674
     20 H          66.8187   93.6110   11.3171 H       1  UNL1        0.1438
     21 H          67.5241   93.8433   12.8521 H       1  UNL1        0.1438
     22 O          59.9699   86.8707    9.5091 O.3     1  UNL1       -0.2926
     23 C          61.3807   86.4116    9.7300 C.3     1  UNL1        0.1514
     24 C          61.8497   86.0677   11.1127 C.3     1  UNL1        0.0326
     25 C          62.5561   84.7685   11.3635 C.3     1  UNL1        0.0026
     26 C          63.2547   84.0651   10.2378 C.3     1  UNL1        0.0001
     27 C          64.3766   83.1131   10.5294 C.3     1  UNL1        0.0000
     28 C          64.2497   82.1253   11.6511 C.3     1  UNL1        0.0000
     29 C          62.9908   81.3246   11.8066 C.3     1  UNL1        0.0000
     30 C          62.6757   80.6696   13.1187 C.3     1  UNL1        0.0000
     31 C          61.7760   81.3564   14.1029 C.3     1  UNL1        0.0000
     32 C          61.8350   82.8470   14.2599 C.3     1  UNL1        0.0000
     33 C          62.7281   83.4569   15.2993 C.3     1  UNL1        0.0000
     34 C          64.2162   83.4429   15.1113 C.3     1  UNL1        0.0000
     35 C          64.8769   84.5008   14.2782 C.3     1  UNL1        0.0000
     36 C          65.2070   85.8336   14.8821 C.3     1  UNL1        0.0010
     37 C          64.3722   87.0348   14.5503 C.3     1  UNL1        0.0140
     38 C          63.7479   87.8413   15.6501 C.3     1  UNL1        0.0770
     39 C          62.5851   86.4622   18.0473 C.1     1  UNL1       -0.0141
     40 C          63.1665   87.1517   16.8486 C.1     1  UNL1       -0.0779
@<TRIPOS>BOND
     1    39    40    3
     2    40    38    1
     3    38    37    1
     4    37    36    1
     5    36    35    1
     6    35    34    1
     7    34    33    1
     8    33    32    1
     9    32    31    1
    10    31    30    1
    11    30    29    1
    12    29    28    1
    13    28    27    1
    14    27    26    1
    15    26    25    1
    16    25    24    1
    17    24    23    1
    18    23    22    1
    19    22     1    1
    20     1     2    2
    21     1     3    1
    22     1     5    1
    23     5     6    1
    24     6     7    1
    25     7     8    1
    26     7     9    1
    27     9    10    1
    28    10    11   ar
    29    11    12   ar
    30    12    13   ar
    31    13    14   ar
    32    14    15    1
    33    14    16   ar
    34    16    17   ar
    35    17    18   ar
    36    18    19   ar
    37    19    10   ar
    38    19    13   ar
    39     3     4    1
    40    15    20    1
    41    15    21    1
@<TRIPOS>MOLECULE
*****
 40 41 0 0 0
SMALL
GASTEIGER

@<TRIPOS>ATOM
      1 P          63.6258   88.7378   14.5293 P.3     1  UNL1        0.3697
      2 O          63.5213   88.3096   15.9631 O.2     1  UNL1       -0.2553
      3 O          62.7930   89.9485   14.8302 O.3     1  UNL1       -0.3218
      4 H          62.5498   89.9485   15.7692 H       1  UNL1        0.2198
      5 C          63.7303   89.1659   13.0955 C.3     1  UNL1        0.2579
      6 O          62.9706   90.3663   12.6139 O.3     1  UNL1       -0.3426
      7 C          63.2267   90.9151   11.2416 C.3     1  UNL1        0.1387
      8 C          62.6905   90.2012   10.0363 C.3     1  UNL1        0.0342
      9 C          64.0190   92.1778   11.0747 C.3     1  UNL1        0.1384
     10 N          65.4269   92.2531   11.5868 N.ar    1  UNL1       -0.2918
     11 C          66.6670   92.3396   10.7474 C.ar    1  UNL1        0.1798
     12 N          67.8483   92.3950   11.6702 N.ar    1  UNL1       -0.2195
     13 C          67.3383   92.3428   13.0798 C.ar    1  UNL1        0.1481
     14 C          68.0432   92.3638   14.4036 C.ar    1  UNL1        0.1480
     15 N          69.5398   92.4515   14.4551 N.pl3   1  UNL1       -0.3413
     16 N          67.2516   92.2971   15.6760 N.ar    1  UNL1       -0.2078
     17 C          65.7551   92.2094   15.6245 C.ar    1  UNL1        0.2015
     18 N          65.0501   92.1884   14.3007 N.ar    1  UNL1       -0.2048
     19 C          65.8417   92.2551   13.0283 C.ar    1  UNL1        0.1674
     20 H          70.0593   92.4953   13.6200 H       1  UNL1        0.1438
     21 H          70.0025   92.4653   15.3240 H       1  UNL1        0.1438
     22 O          64.4585   87.5270   14.2284 O.3     1  UNL1       -0.2926
     23 C          64.3407   86.3032   15.0877 C.3     1  UNL1        0.1514
     24 C          64.6869   84.9562   14.5260 C.3     1  UNL1        0.0326
     25 C          64.0720   83.7192   15.1107 C.3     1  UNL1        0.0026
     26 C          62.5869   83.5179   15.0471 C.3     1  UNL1        0.0001
     27 C          62.0104   82.4682   14.1440 C.3     1  UNL1        0.0000
     28 C          62.9067   81.4378   13.5236 C.3     1  UNL1        0.0000
     29 C          63.2734   81.5385   12.0725 C.3     1  UNL1        0.0000
     30 C          64.3931   82.4394   11.6427 C.3     1  UNL1        0.0000
     31 C          64.2111   83.3538   10.4676 C.3     1  UNL1        0.0000
     32 C          62.9610   84.1730   10.3412 C.3     1  UNL1        0.0000
     33 C          62.5872   85.1427   11.4228 C.3     1  UNL1        0.0000
     34 C          62.2626   86.5653   11.0753 C.3     1  UNL1        0.0000
     35 C          60.8523   87.0629   11.1919 C.3     1  UNL1        0.0000
     36 C          60.1399   87.5886    9.9812 C.3     1  UNL1        0.0010
     37 C          60.6766   87.2994    8.6107 C.3     1  UNL1        0.0140
     38 C          60.2438   86.0622    7.8814 C.3     1  UNL1        0.0770
     39 C          62.2334   84.4956    6.2728 C.1     1  UNL1       -0.0141
     40 C          61.2386   85.2789    7.0771 C.1     1  UNL1       -0.0779
@<TRIPOS>BOND
     1    39    40    3
     2    40    38    1
     3    38    37    1
     4    37    36    1
     5    36    35    1
     6    35    34    1
     7    34    33    1
     8    33    32    1
     9    32    31    1
    10    31    30    1
    11    30    29    1
    12    29    28    1
    13    28    27    1
    14    27    26    1
    15    26    25    1
    16    25    24    1
    17    24    23    1
    18    23    22    1
    19    22     1    1
    20     1     2    2
    21     1     3    1
    22     1     5    1
    23     5     6    1
    24     6     7    1
    25     7     8    1
    26     7     9    1
    27     9    10    1
    28    10    11   ar
    29    11    12   ar
    30    12    13   ar
    31    13    14   ar
    32    14    15    1
    33    14    16   ar
    34    16    17   ar
    35    17    18   ar
    36    18    19   ar
    37    19    10   ar
    38    19    13   ar
    39     3     4    1
    40    15    20    1
    41    15    21    1
@<TRIPOS>MOLECULE
*****
 40 41 0 0 0
SMALL
GASTEIGER

@<TRIPOS>ATOM
      1 P          63.6815   89.9377   13.9936 P.3     1  UNL1        0.3697
      2 O          62.4660   89.6141   13.1764 O.2     1  UNL1       -0.2553
      3 O          63.1253   91.3007   14.2813 O.3     1  UNL1       -0.3218
      4 H          62.2643   91.3972   13.8450 H       1  UNL1        0.2198
      5 C          64.8970   90.2612   14.8109 C.3     1  UNL1        0.2579
      6 O          65.2454   91.6905   15.1035 O.3     1  UNL1       -0.3426
      7 C          66.6551   92.1707   14.9244 C.3     1  UNL1        0.1387
      8 C          67.3984   92.7639   16.0844 C.3     1  UNL1        0.0342
      9 C          67.3216   92.0576   13.5853 C.3     1  UNL1        0.1384
     10 N          66.9549   93.0061   12.4825 N.ar    1  UNL1       -0.2918
     11 C          66.0058   94.1623   12.5933 C.ar    1  UNL1        0.1798
     12 N          65.9374   94.8356   11.2547 N.ar    1  UNL1       -0.2195
     13 C          66.8441   94.0954   10.3166 C.ar    1  UNL1        0.1481
     14 C          67.1784   94.3050    8.8694 C.ar    1  UNL1        0.1480
     15 N          66.5495   95.4358    8.1105 N.pl3   1  UNL1       -0.3413
     16 N          68.1415   93.3839    8.1812 N.ar    1  UNL1       -0.2078
     17 C          68.7704   92.2531    8.9400 C.ar    1  UNL1        0.2015
     18 N          68.4362   92.0436   10.3872 N.ar    1  UNL1       -0.2048
     19 C          67.4730   92.9647   11.0755 C.ar    1  UNL1        0.1674
     20 H          65.9173   96.0404    8.5623 H       1  UNL1        0.1438
     21 H          66.7688   95.5733    7.1607 H       1  UNL1        0.1438
     22 O          64.2377   88.5747   13.7060 O.3     1  UNL1       -0.2926
     23 C          64.2538   87.5289   14.7812 C.3     1  UNL1        0.1514
     24 C          64.2079   86.0752   14.4143 C.3     1  UNL1        0.0326
     25 C          63.8879   85.0477   15.4592 C.3     1  UNL1        0.0026
     26 C          63.6766   83.6163   15.0636 C.3     1  UNL1        0.0001
     27 C          62.3123   83.1443   14.6564 C.3     1  UNL1        0.0000
     28 C          62.0959   81.7074   14.2840 C.3     1  UNL1        0.0000
     29 C          62.5205   81.2104   12.9339 C.3     1  UNL1        0.0000
     30 C          63.7403   81.7819   12.2738 C.3     1  UNL1        0.0000
     31 C          63.7123   82.1237   10.8136 C.3     1  UNL1        0.0000
     32 C          63.4896   83.5421   10.3795 C.3     1  UNL1        0.0000
     33 C          63.1047   84.5835   11.3881 C.3     1  UNL1        0.0000
     34 C          61.9129   85.4607   11.1430 C.3     1  UNL1        0.0000
     35 C          62.1007   86.9260   10.8836 C.3     1  UNL1        0.0000
     36 C          61.2612   87.6187    9.8514 C.3     1  UNL1        0.0010
     37 C          60.0927   86.9081    9.2351 C.3     1  UNL1        0.0140
     38 C          60.1227   86.5354    7.7825 C.3     1  UNL1        0.0770
     39 C          62.1983   84.6218    6.7674 C.1     1  UNL1       -0.0141
     40 C          61.1605   85.5786    7.2750 C.1     1  UNL1       -0.0779
@<TRIPOS>BOND
     1    39    40    3
     2    40    38    1
     3    38    37    1
     4    37    36    1
     5    36    35    1
     6    35    34    1
     7    34    33    1
     8    33    32    1
     9    32    31    1
    10    31    30    1
    11    30    29    1
    12    29    28    1
    13    28    27    1
    14    27    26    1
    15    26    25    1
    16    25    24    1
    17    24    23    1
    18    23    22    1
    19    22     1    1
    20     1     2    2
    21     1     3    1
    22     1     5    1
    23     5     6    1
    24     6     7    1
    25     7     8    1
    26     7     9    1
    27     9    10    1
    28    10    11   ar
    29    11    12   ar
    30    12    13   ar
    31    13    14   ar
    32    14    15    1
    33    14    16   ar
    34    16    17   ar
    35    17    18   ar
    36    18    19   ar
    37    19    10   ar
    38    19    13   ar
    39     3     4    1
    40    15    20    1
    41    15    21    1
@<TRIPOS>MOLECULE
*****
 40 41 0 0 0
SMALL
GASTEIGER

@<TRIPOS>ATOM
      1 P          63.6496   89.9342   15.3958 P.3     1  UNL1        0.3697
      2 O          62.4723   89.3026   16.0776 O.2     1  UNL1       -0.2553
      3 O          63.4241   91.1958   16.1752 O.3     1  UNL1       -0.3218
      4 H          62.6577   91.0827   16.7589 H       1  UNL1        0.2198
      5 C          64.8269   90.5659   14.7139 C.3     1  UNL1        0.2579
      6 O          65.4747   91.7813   15.3083 O.3     1  UNL1       -0.3426
      7 C          66.8983   92.1129   14.9717 C.3     1  UNL1        0.1387
      8 C          67.8213   92.6247   16.0375 C.3     1  UNL1        0.0342
      9 C          67.3989   91.9327   13.5691 C.3     1  UNL1        0.1384
     10 N          66.9954   92.9024   12.4983 N.ar    1  UNL1       -0.2918
     11 C          66.0173   94.0292   12.6523 C.ar    1  UNL1        0.1798
     12 N          65.9165   94.7388   11.3347 N.ar    1  UNL1       -0.2195
     13 C          66.8322   94.0506   10.3662 C.ar    1  UNL1        0.1481
     14 C          67.1450   94.3107    8.9225 C.ar    1  UNL1        0.1480
     15 N          66.4783   95.4457    8.2033 N.pl3   1  UNL1       -0.3413
     16 N          68.1246   93.4359    8.1980 N.ar    1  UNL1       -0.2078
     17 C          68.7914   92.3009    8.9171 C.ar    1  UNL1        0.2015
     18 N          68.4786   92.0408   10.3609 N.ar    1  UNL1       -0.2048
     19 C          67.4990   92.9156   11.0854 C.ar    1  UNL1        0.1674
     20 H          65.8353   96.0199    8.6789 H       1  UNL1        0.1438
     21 H          66.6836   95.6165    7.2557 H       1  UNL1        0.1438
     22 O          63.8752   88.6726   14.6164 O.3     1  UNL1       -0.2926
     23 C          63.7354   87.3397   15.2900 C.3     1  UNL1        0.1514
     24 C          64.8457   86.3350   15.2025 C.3     1  UNL1        0.0326
     25 C          64.6911   85.1200   14.3365 C.3     1  UNL1        0.0026
     26 C          64.1000   83.8641   14.9051 C.3     1  UNL1        0.0001
     27 C          62.6368   83.5805   14.7364 C.3     1  UNL1        0.0000
     28 C          62.1717   82.1835   14.4499 C.3     1  UNL1        0.0000
     29 C          63.0928   81.2095   13.7769 C.3     1  UNL1        0.0000
     30 C          62.7696   80.6969   12.4048 C.3     1  UNL1        0.0000
     31 C          62.9470   81.5870   11.2105 C.3     1  UNL1        0.0000
     32 C          64.0900   82.5571   11.1612 C.3     1  UNL1        0.0000
     33 C          63.8205   84.0289   11.0561 C.3     1  UNL1        0.0000
     34 C          62.4396   84.5583   11.3071 C.3     1  UNL1        0.0000
     35 C          61.8462   85.5759   10.3785 C.3     1  UNL1        0.0000
     36 C          61.7245   87.0066   10.8125 C.3     1  UNL1        0.0010
     37 C          62.0969   88.1110    9.8683 C.3     1  UNL1        0.0140
     38 C          61.7553   89.5323   10.2046 C.3     1  UNL1        0.0770
     39 C          63.9420   91.5092   10.7620 C.1     1  UNL1       -0.0141
     40 C          62.8487   90.5207   10.4833 C.1     1  UNL1       -0.0779
@<TRIPOS>BOND
     1    39    40    3
     2    40    38    1
     3    38    37    1
     4    37    36    1
     5    36    35    1
     6    35    34    1
     7    34    33    1
     8    33    32    1
     9    32    31    1
    10    31    30    1
    11    30    29    1
    12    29    28    1
    13    28    27    1
    14    27    26    1
    15    26    25    1
    16    25    24    1
    17    24    23    1
    18    23    22    1
    19    22     1    1
    20     1     2    2
    21     1     3    1
    22     1     5    1
    23     5     6    1
    24     6     7    1
    25     7     8    1
    26     7     9    1
    27     9    10    1
    28    10    11   ar
    29    11    12   ar
    30    12    13   ar
    31    13    14   ar
    32    14    15    1
    33    14    16   ar
    34    16    17   ar
    35    17    18   ar
    36    18    19   ar
    37    19    10   ar
    38    19    13   ar
    39     3     4    1
    40    15    20    1
    41    15    21    1
@<TRIPOS>MOLECULE
*****
 40 41 0 0 0
SMALL
GASTEIGER

@<TRIPOS>ATOM
      1 P          63.5187   89.0517   14.6659 P.3     1  UNL1        0.3697
      2 O          63.3657   88.7541   16.1281 O.2     1  UNL1       -0.2553
      3 O          62.4866   90.1344   14.7783 O.3     1  UNL1       -0.3218
      4 H          62.1709   90.1863   15.6940 H       1  UNL1        0.2198
      5 C          63.6716   89.3492   13.2037 C.3     1  UNL1        0.2579
      6 O          62.8952   90.4717   12.5815 O.3     1  UNL1       -0.3426
      7 C          63.2989   91.0101   11.2409 C.3     1  UNL1        0.1387
      8 C          62.8891   90.2913    9.9897 C.3     1  UNL1        0.0342
      9 C          64.1123   92.2673   11.1515 C.3     1  UNL1        0.1384
     10 N          65.5264   92.2828   11.6514 N.ar    1  UNL1       -0.2918
     11 C          66.7623   92.2654   10.8016 C.ar    1  UNL1        0.1798
     12 N          67.9526   92.2902   11.7140 N.ar    1  UNL1       -0.2195
     13 C          67.4524   92.3229   13.1278 C.ar    1  UNL1        0.1481
     14 C          68.1686   92.3563   14.4453 C.ar    1  UNL1        0.1480
     15 N          69.6681   92.3609   14.4839 N.pl3   1  UNL1       -0.3413
     16 N          67.3853   92.3850   15.7241 N.ar    1  UNL1       -0.2078
     17 C          65.8858   92.3804   15.6855 C.ar    1  UNL1        0.2015
     18 N          65.1696   92.3470   14.3680 N.ar    1  UNL1       -0.2048
     19 C          65.9529   92.3183   13.0891 C.ar    1  UNL1        0.1674
     20 H          70.1822   92.3420   13.6445 H       1  UNL1        0.1438
     21 H          70.1381   92.3828   15.3487 H       1  UNL1        0.1438
     22 O          64.5507   87.9690   14.5536 O.3     1  UNL1       -0.2926
     23 C          64.1246   86.5349   14.4452 C.3     1  UNL1        0.1514
     24 C          65.0868   85.4382   14.7935 C.3     1  UNL1        0.0326
     25 C          64.8343   84.0390   14.3155 C.3     1  UNL1        0.0026
     26 C          63.8806   83.1526   15.0603 C.3     1  UNL1        0.0001
     27 C          62.4289   83.1289   14.6838 C.3     1  UNL1        0.0000
     28 C          61.7924   81.8485   14.2304 C.3     1  UNL1        0.0000
     29 C          62.6500   80.6759   13.8567 C.3     1  UNL1        0.0000
     30 C          62.6970   80.2044   12.4335 C.3     1  UNL1        0.0000
     31 C          62.9639   81.1822   11.3279 C.3     1  UNL1        0.0000
     32 C          64.0989   82.1559   11.4454 C.3     1  UNL1        0.0000
     33 C          64.3390   83.1624   10.3595 C.3     1  UNL1        0.0000
     34 C          63.3329   84.2454   10.1048 C.3     1  UNL1        0.0000
     35 C          62.6369   84.9084   11.2563 C.3     1  UNL1        0.0000
     36 C          62.0562   86.2816   11.0917 C.3     1  UNL1        0.0010
     37 C          60.8271   86.4809   10.2554 C.3     1  UNL1        0.0140
     38 C          60.3198   87.8665    9.9860 C.3     1  UNL1        0.0770
     39 C          59.4301   89.6074   12.2615 C.1     1  UNL1       -0.0141
     40 C          59.8749   88.7369   11.1237 C.1     1  UNL1       -0.0779
@<TRIPOS>BOND
     1    39    40    3
     2    40    38    1
     3    38    37    1
     4    37    36    1
     5    36    35    1
     6    35    34    1
     7    34    33    1
     8    33    32    1
     9    32    31    1
    10    31    30    1
    11    30    29    1
    12    29    28    1
    13    28    27    1
    14    27    26    1
    15    26    25    1
    16    25    24    1
    17    24    23    1
    18    23    22    1
    19    22     1    1
    20     1     2    2
    21     1     3    1
    22     1     5    1
    23     5     6    1
    24     6     7    1
    25     7     8    1
    26     7     9    1
    27     9    10    1
    28    10    11   ar
    29    11    12   ar
    30    12    13   ar
    31    13    14   ar
    32    14    15    1
    33    14    16   ar
    34    16    17   ar
    35    17    18   ar
    36    18    19   ar
    37    19    10   ar
    38    19    13   ar
    39     3     4    1
    40    15    20    1
    41    15    21    1
@<TRIPOS>MOLECULE
*****
 40 41 0 0 0
SMALL
GASTEIGER

@<TRIPOS>ATOM
      1 P          63.3664   90.0611   14.1139 P.3     1  UNL1        0.3697
      2 O          62.1162   89.7230   13.3572 O.2     1  UNL1       -0.2553
      3 O          62.7302   89.5747   15.3823 O.3     1  UNL1       -0.3218
      4 H          61.8308   89.2637   15.1943 H       1  UNL1        0.2198
      5 C          64.6165   90.3992   14.8707 C.3     1  UNL1        0.2579
      6 O          65.0191   91.8327   15.0519 O.3     1  UNL1       -0.3426
      7 C          66.4574   92.2322   14.9050 C.3     1  UNL1        0.1387
      8 C          67.2037   92.7930   16.0792 C.3     1  UNL1        0.0342
      9 C          67.1495   92.0709   13.5840 C.3     1  UNL1        0.1384
     10 N          66.8533   93.0205   12.4612 N.ar    1  UNL1       -0.2918
     11 C          65.9437   94.2112   12.5303 C.ar    1  UNL1        0.1798
     12 N          65.9429   94.8726   11.1841 N.ar    1  UNL1       -0.2195
     13 C          66.8520   94.0907   10.2829 C.ar    1  UNL1        0.1481
     14 C          67.2401   94.2731    8.8455 C.ar    1  UNL1        0.1480
     15 N          66.6775   95.4178    8.0562 N.pl3   1  UNL1       -0.3413
     16 N          68.1910   93.3109    8.1975 N.ar    1  UNL1       -0.2078
     17 C          68.7536   92.1661    8.9869 C.ar    1  UNL1        0.2015
     18 N          68.3655   91.9837   10.4242 N.ar    1  UNL1       -0.2048
     19 C          67.4147   92.9460   11.0722 C.ar    1  UNL1        0.1674
     20 H          66.0534   96.0494    8.4815 H       1  UNL1        0.1438
     21 H          66.9323   95.5376    7.1128 H       1  UNL1        0.1438
     22 O          64.0025   90.5475   12.8456 O.3     1  UNL1       -0.2926
     23 C          63.1688   91.2300   11.8021 C.3     1  UNL1        0.1514
     24 C          63.2810   90.8172   10.3644 C.3     1  UNL1        0.0326
     25 C          62.3645   89.7659    9.8122 C.3     1  UNL1        0.0026
     26 C          60.8812   89.8924    9.9960 C.3     1  UNL1        0.0001
     27 C          60.0066   88.6780    9.8950 C.3     1  UNL1        0.0000
     28 C          60.2929   87.6316    8.8592 C.3     1  UNL1        0.0000
     29 C          60.7983   86.2821    9.2760 C.3     1  UNL1        0.0000
     30 C          61.2588   86.0563   10.6856 C.3     1  UNL1        0.0000
     31 C          62.6433   85.5430   10.9493 C.3     1  UNL1        0.0000
     32 C          63.1933   84.4135   10.1297 C.3     1  UNL1        0.0000
     33 C          64.1007   83.4004   10.7622 C.3     1  UNL1        0.0000
     34 C          63.9334   81.9435   10.4471 C.3     1  UNL1        0.0000
     35 C          62.9253   81.1247   11.1975 C.3     1  UNL1        0.0000
     36 C          62.9983   81.0312   12.6928 C.3     1  UNL1        0.0010
     37 C          61.9793   81.7353   13.5390 C.3     1  UNL1        0.0140
     38 C          62.4223   82.6098   14.6743 C.3     1  UNL1        0.0770
     39 C          64.4442   84.7749   14.1997 C.1     1  UNL1       -0.0141
     40 C          63.4332   83.6923   14.4370 C.1     1  UNL1       -0.0779
@<TRIPOS>BOND
     1    39    40    3
     2    40    38    1
     3    38    37    1
     4    37    36    1
     5    36    35    1
     6    35    34    1
     7    34    33    1
     8    33    32    1
     9    32    31    1
    10    31    30    1
    11    30    29    1
    12    29    28    1
    13    28    27    1
    14    27    26    1
    15    26    25    1
    16    25    24    1
    17    24    23    1
    18    23    22    1
    19    22     1    1
    20     1     2    2
    21     1     3    1
    22     1     5    1
    23     5     6    1
    24     6     7    1
    25     7     8    1
    26     7     9    1
    27     9    10    1
    28    10    11   ar
    29    11    12   ar
    30    12    13   ar
    31    13    14   ar
    32    14    15    1
    33    14    16   ar
    34    16    17   ar
    35    17    18   ar
    36    18    19   ar
    37    19    10   ar
    38    19    13   ar
    39     3     4    1
    40    15    20    1
    41    15    21    1
@<TRIPOS>MOLECULE
*****
 40 41 0 0 0
SMALL
GASTEIGER

@<TRIPOS>ATOM
      1 P          59.7116   87.3755    8.2501 P.3     1  UNL1        0.3697
      2 O          58.9617   88.3948    7.4447 O.2     1  UNL1       -0.2553
      3 O          58.9557   86.2768    7.5636 O.3     1  UNL1       -0.3218
      4 H          58.3355   86.6614    6.9246 H       1  UNL1        0.2198
      5 C          60.4616   86.3563    9.0555 C.3     1  UNL1        0.2579
      6 O          61.9593   86.3049    8.9928 O.3     1  UNL1       -0.3426
      7 C          62.6467   85.0760    8.4759 C.3     1  UNL1        0.1387
      8 C          62.5509   84.7183    7.0223 C.3     1  UNL1        0.0342
      9 C          63.4299   84.2045    9.4127 C.3     1  UNL1        0.1384
     10 N          63.1595   84.2555   10.8872 N.ar    1  UNL1       -0.2918
     11 C          62.9699   85.4977   11.7064 C.ar    1  UNL1        0.1798
     12 N          62.7244   85.0831   13.1269 N.ar    1  UNL1       -0.2195
     13 C          62.7624   83.5848   13.1857 C.ar    1  UNL1        0.1481
     14 C          62.5868   82.6201   14.3208 C.ar    1  UNL1        0.1480
     15 N          62.3179   83.1316   15.7050 N.pl3   1  UNL1       -0.3413
     16 N          62.6802   81.1439   14.0717 N.ar    1  UNL1       -0.2078
     17 C          62.9491   80.6324   12.6875 C.ar    1  UNL1        0.2015
     18 N          63.1246   81.5971   11.5524 N.ar    1  UNL1       -0.2048
     19 C          63.0313   83.0733   11.8015 C.ar    1  UNL1        0.1674
     20 H          62.2566   84.1005   15.8685 H       1  UNL1        0.1438
     21 H          62.2027   82.4984   16.4500 H       1  UNL1        0.1438
     22 O          60.4676   88.4742    8.9367 O.3     1  UNL1       -0.2926
     23 C          60.1522   88.8256   10.3604 C.3     1  UNL1        0.1514
     24 C          60.4433   90.2042   10.8748 C.3     1  UNL1        0.0326
     25 C          61.7570   90.8585   10.5648 C.3     1  UNL1        0.0026
     26 C          63.0384   90.2112   10.9996 C.3     1  UNL1        0.0001
     27 C          63.5641   90.4442   12.3850 C.3     1  UNL1        0.0000
     28 C          63.8519   89.2785   13.2840 C.3     1  UNL1        0.0000
     29 C          64.2058   89.5106   14.7231 C.3     1  UNL1        0.0000
     30 C          64.1433   90.8951   15.2969 C.3     1  UNL1        0.0000
     31 C          65.3707   91.7572   15.3110 C.3     1  UNL1        0.0000
     32 C          66.5992   91.3255   14.5664 C.3     1  UNL1        0.0000
     33 C          67.1571   92.1899   13.4749 C.3     1  UNL1        0.0000
     34 C          66.4224   93.4259   13.0476 C.3     1  UNL1        0.0000
     35 C          65.8748   93.5291   11.6549 C.3     1  UNL1        0.0000
     36 C          66.2302   92.4927   10.6305 C.3     1  UNL1        0.0010
     37 C          67.6658   92.2663   10.2594 C.3     1  UNL1        0.0140
     38 C          68.3143   93.1239    9.2134 C.3     1  UNL1        0.0770
     39 C          66.9997   95.6746    8.3383 C.1     1  UNL1       -0.0141
     40 C          67.6570   94.3992    8.7759 C.1     1  UNL1       -0.0779
@<TRIPOS>BOND
     1    39    40    3
     2    40    38    1
     3    38    37    1
     4    37    36    1
     5    36    35    1
     6    35    34    1
     7    34    33    1
     8    33    32    1
     9    32    31    1
    10    31    30    1
    11    30    29    1
    12    29    28    1
    13    28    27    1
    14    27    26    1
    15    26    25    1
    16    25    24    1
    17    24    23    1
    18    23    22    1
    19    22     1    1
    20     1     2    2
    21     1     3    1
    22     1     5    1
    23     5     6    1
    24     6     7    1
    25     7     8    1
    26     7     9    1
    27     9    10    1
    28    10    11   ar
    29    11    12   ar
    30    12    13   ar
    31    13    14   ar
    32    14    15    1
    33    14    16   ar
    34    16    17   ar
    35    17    18   ar
    36    18    19   ar
    37    19    10   ar
    38    19    13   ar
    39     3     4    1
    40    15    20    1
    41    15    21    1
@<TRIPOS>MOLECULE
*****
 40 41 0 0 0
SMALL
GASTEIGER

@<TRIPOS>ATOM
      1 P          63.2165   90.0691   13.7228 P.3     1  UNL1        0.3697
      2 O          61.8076   89.7155   13.3485 O.2     1  UNL1       -0.2553
      3 O          62.7674   90.3797   15.1198 O.3     1  UNL1       -0.3218
      4 H          61.8116   90.2310   15.1928 H       1  UNL1        0.2198
      5 C          64.6253   90.4227   14.0970 C.3     1  UNL1        0.2579
      6 O          64.9616   91.8240   14.5134 O.3     1  UNL1       -0.3426
      7 C          66.3926   92.2205   14.7256 C.3     1  UNL1        0.1387
      8 C          66.8953   92.5023   16.1104 C.3     1  UNL1        0.0342
      9 C          67.3209   92.3351   13.5529 C.3     1  UNL1        0.1384
     10 N          66.9711   93.2344   12.4044 N.ar    1  UNL1       -0.2918
     11 C          66.0480   94.4155   12.4589 C.ar    1  UNL1        0.1798
     12 N          65.9894   95.0215   11.0881 N.ar    1  UNL1       -0.2195
     13 C          66.8762   94.2150   10.1863 C.ar    1  UNL1        0.1481
     14 C          67.2095   94.3436    8.7296 C.ar    1  UNL1        0.1480
     15 N          66.6028   95.4481    7.9160 N.pl3   1  UNL1       -0.3413
     16 N          68.1497   93.3677    8.0864 N.ar    1  UNL1       -0.2078
     17 C          68.7564   92.2632    8.8999 C.ar    1  UNL1        0.2015
     18 N          68.4230   92.1346   10.3567 N.ar    1  UNL1       -0.2048
     19 C          67.4829   93.1104   10.9999 C.ar    1  UNL1        0.1674
     20 H          65.9857   96.0886    8.3381 H       1  UNL1        0.1438
     21 H          66.8216   95.5325    6.9598 H       1  UNL1        0.1438
     22 O          63.6656   89.7586   12.3257 O.3     1  UNL1       -0.2926
     23 C          62.8689   90.2521   11.1546 C.3     1  UNL1        0.1514
     24 C          62.4536   89.2980   10.0742 C.3     1  UNL1        0.0326
     25 C          61.2963   88.3702   10.2972 C.3     1  UNL1        0.0026
     26 C          60.8749   87.4228    9.2133 C.3     1  UNL1        0.0001
     27 C          61.3917   86.0147    9.2051 C.3     1  UNL1        0.0000
     28 C          62.7339   85.7117    8.6079 C.3     1  UNL1        0.0000
     29 C          63.4640   84.4611    8.9993 C.3     1  UNL1        0.0000
     30 C          63.6244   84.1086   10.4484 C.3     1  UNL1        0.0000
     31 C          63.8096   82.6771   10.8561 C.3     1  UNL1        0.0000
     32 C          62.6680   81.9163   11.4627 C.3     1  UNL1        0.0000
     33 C          62.9345   80.8589   12.4927 C.3     1  UNL1        0.0000
     34 C          62.3487   80.9865   13.8676 C.3     1  UNL1        0.0000
     35 C          62.0375   82.3429   14.4274 C.3     1  UNL1        0.0000
     36 C          63.1197   83.1517   15.0790 C.3     1  UNL1        0.0010
     37 C          63.5452   84.4582   14.4773 C.3     1  UNL1        0.0140
     38 C          64.1593   85.5180   15.3430 C.3     1  UNL1        0.0770
     39 C          62.6892   86.5197   17.7587 C.1     1  UNL1       -0.0141
     40 C          63.4243   86.0188   16.5508 C.1     1  UNL1       -0.0779
@<TRIPOS>BOND
     1    39    40    3
     2    40    38    1
     3    38    37    1
     4    37    36    1
     5    36    35    1
     6    35    34    1
     7    34    33    1
     8    33    32    1
     9    32    31    1
    10    31    30    1
    11    30    29    1
    12    29    28    1
    13    28    27    1
    14    27    26    1
    15    26    25    1
    16    25    24    1
    17    24    23    1
    18    23    22    1
    19    22     1    1
    20     1     2    2
    21     1     3    1
    22     1     5    1
    23     5     6    1
    24     6     7    1
    25     7     8    1
    26     7     9    1
    27     9    10    1
    28    10    11   ar
    29    11    12   ar
    30    12    13   ar
    31    13    14   ar
    32    14    15    1
    33    14    16   ar
    34    16    17   ar
    35    17    18   ar
    36    18    19   ar
    37    19    10   ar
    38    19    13   ar
    39     3     4    1
    40    15    20    1
    41    15    21    1
@<TRIPOS>MOLECULE
*****
 40 41 0 0 0
SMALL
GASTEIGER

@<TRIPOS>ATOM
      1 P          60.0183   89.2637   11.1777 P.3     1  UNL1        0.3697
      2 O          59.5073   90.0474   12.3502 O.2     1  UNL1       -0.2553
      3 O          59.3394   88.0340   11.7037 O.3     1  UNL1       -0.3218
      4 H          58.8815   88.2467   12.5320 H       1  UNL1        0.2198
      5 C          60.5293   88.4801   10.0052 C.3     1  UNL1        0.2579
      6 O          60.5066   86.9806   10.0379 O.3     1  UNL1       -0.3426
      7 C          61.7138   86.2026    9.6051 C.3     1  UNL1        0.1387
      8 C          61.8125   85.6925    8.1980 C.3     1  UNL1        0.0342
      9 C          62.8224   85.9346   10.5795 C.3     1  UNL1        0.1384
     10 N          63.0095   84.5569   11.1424 N.ar    1  UNL1       -0.2918
     11 C          63.4064   83.3347   10.3685 C.ar    1  UNL1        0.1798
     12 N          63.4747   82.1820   11.3258 N.ar    1  UNL1       -0.2195
     13 C          63.1200   82.6916   12.6913 C.ar    1  UNL1        0.1481
     14 C          63.0217   82.0088   14.0232 C.ar    1  UNL1        0.1480
     15 N          63.3093   80.5410   14.1366 N.pl3   1  UNL1       -0.3413
     16 N          62.6359   82.7938   15.2417 N.ar    1  UNL1       -0.2078
     17 C          62.3484   84.2616   15.1283 C.ar    1  UNL1        0.2015
     18 N          62.4467   84.9445   13.7964 N.ar    1  UNL1       -0.2048
     19 C          62.8325   84.1594   12.5779 C.ar    1  UNL1        0.1674
     20 H          63.5625   80.0258   13.3368 H       1  UNL1        0.1438
     21 H          63.2447   80.0929   15.0108 H       1  UNL1        0.1438
     22 O          60.6972   90.4935   10.6516 O.3     1  UNL1       -0.2926
     23 C          62.1574   90.4564   10.3106 C.3     1  UNL1        0.1514
     24 C          63.1809   90.7764   11.3594 C.3     1  UNL1        0.0326
     25 C          63.0256   90.2340   12.7492 C.3     1  UNL1        0.0026
     26 C          63.8167   89.0342   13.1788 C.3     1  UNL1        0.0001
     27 C          64.2684   88.9043   14.6032 C.3     1  UNL1        0.0000
     28 C          63.4964   89.5772   15.6992 C.3     1  UNL1        0.0000
     29 C          63.9014   90.9416   16.1733 C.3     1  UNL1        0.0000
     30 C          64.8386   91.7742   15.3497 C.3     1  UNL1        0.0000
     31 C          66.0182   92.4376   15.9967 C.3     1  UNL1        0.0000
     32 C          67.3397   92.4746   15.2881 C.3     1  UNL1        0.0000
     33 C          67.5443   91.6686   14.0398 C.3     1  UNL1        0.0000
     34 C          67.2836   92.2854   12.6976 C.3     1  UNL1        0.0000
     35 C          66.4045   93.4957   12.5863 C.3     1  UNL1        0.0000
     36 C          65.8021   93.8661   11.2635 C.3     1  UNL1        0.0010
     37 C          66.2781   95.0903   10.5391 C.3     1  UNL1        0.0140
     38 C          67.3424   94.9738    9.4886 C.3     1  UNL1        0.0770
     39 C          68.6846   92.3358    8.9988 C.1     1  UNL1       -0.0141
     40 C          68.0134   93.6549    9.2437 C.1     1  UNL1       -0.0779
@<TRIPOS>BOND
     1    39    40    3
     2    40    38    1
     3    38    37    1
     4    37    36    1
     5    36    35    1
     6    35    34    1
     7    34    33    1
     8    33    32    1
     9    32    31    1
    10    31    30    1
    11    30    29    1
    12    29    28    1
    13    28    27    1
    14    27    26    1
    15    26    25    1
    16    25    24    1
    17    24    23    1
    18    23    22    1
    19    22     1    1
    20     1     2    2
    21     1     3    1
    22     1     5    1
    23     5     6    1
    24     6     7    1
    25     7     8    1
    26     7     9    1
    27     9    10    1
    28    10    11   ar
    29    11    12   ar
    30    12    13   ar
    31    13    14   ar
    32    14    15    1
    33    14    16   ar
    34    16    17   ar
    35    17    18   ar
    36    18    19   ar
    37    19    10   ar
    38    19    13   ar
    39     3     4    1
    40    15    20    1
    41    15    21    1
