@<TRIPOS>MOLECULE
*****
 26 29 0 0 0
SMALL
GASTEIGER

@<TRIPOS>ATOM
      1 C          64.0430   89.7895   13.7237 C.ar    1  UNL1        0.1385
      2 C          63.3223   89.4958   12.4414 C.ar    1  UNL1        0.0384
      3 C          63.0114   88.0779   12.0637 C.ar    1  UNL1        0.0203
      4 C          63.4211   86.9536   12.9682 C.ar    1  UNL1        0.0602
      5 C          64.1418   87.2473   14.2505 C.ar    1  UNL1        0.0204
      6 C          64.4527   88.6652   14.6283 C.ar    1  UNL1        0.0384
      7 C          64.4187   85.9422   14.9360 C.ar    1  UNL1        0.0233
      8 C          63.8692   84.8418   14.0773 C.ar    1  UNL1        0.1140
      9 N          63.2526   85.4669   12.8612 N.ar    1  UNL1       -0.3238
     10 C          62.6175   84.6016   11.8134 C.3     1  UNL1        0.1052
     11 C          62.0009   85.2267   10.5973 C.3     1  UNL1        0.0263
     12 C          62.5989   83.1112   11.9818 C.3     1  UNL1        0.1122
     13 N          63.2154   82.4862   13.1980 N.am    1  UNL1       -0.2978
     14 C          63.8506   83.3515   14.2458 C.2     1  UNL1        0.2618
     15 O          64.4672   82.7263   15.4620 O.2     1  UNL1       -0.2686
     16 H          63.2032   81.5080   13.3086 H       1  UNL1        0.1498
     17 O          64.3539   91.2075   14.1015 O.3     1  UNL1       -0.4791
     18 N          66.3297   93.9468   11.1279 N.3     1  UNL1       -0.2737
     19 C          65.3758   92.8900   10.6555 C.3     1  UNL1        0.0758
     20 C          64.7172   91.9768   11.6467 C.3     1  UNL1        0.0609
     21 C          65.0125   92.1205   13.1103 C.3     1  UNL1        0.1687
     22 C          65.9665   93.1774   13.5827 C.3     1  UNL1        0.0609
     23 C          66.6251   94.0905   12.5915 C.3     1  UNL1        0.0758
     24 C          66.7468   96.3387   10.2036 C.3     1  UNL1        0.0173
     25 C          66.9883   94.8598   10.1367 C.3     1  UNL1        0.0576
     26 C          67.8884   94.2940    9.0785 C.3     1  UNL1        0.0173
@<TRIPOS>BOND
     1    24    25    1
     2    25    26    1
     3    25    18    1
     4    18    19    1
     5    19    20    1
     6    20    21    1
     7    21    17    1
     8    17     1    1
     9     1     2   ar
    10     2     3   ar
    11     3     4   ar
    12     4     5   ar
    13     5     6   ar
    14     5     7   ar
    15     7     8   ar
    16     8     9   ar
    17     9    10    1
    18    10    11    1
    19    10    12    1
    20    12    13    1
    21    13    14   am
    22    14    15    2
    23    21    22    1
    24    22    23    1
    25    23    18    1
    26     6     1   ar
    27    14     8    1
    28     9     4   ar
    29    13    16    1
@<TRIPOS>MOLECULE
*****
 26 29 0 0 0
SMALL
GASTEIGER

@<TRIPOS>ATOM
      1 C          62.4891   89.0377   11.1103 C.ar    1  UNL1        0.1385
      2 C          62.8042   90.1077   10.1074 C.ar    1  UNL1        0.0384
      3 C          63.6750   91.2658   10.4950 C.ar    1  UNL1        0.0203
      4 C          64.2307   91.3540   11.8855 C.ar    1  UNL1        0.0602
      5 C          63.9155   90.2841   12.8884 C.ar    1  UNL1        0.0204
      6 C          63.0447   89.1259   12.5008 C.ar    1  UNL1        0.0384
      7 C          64.6014   90.6379   14.1746 C.ar    1  UNL1        0.0233
      8 C          65.3405   91.9265   13.9667 C.ar    1  UNL1        0.1140
      9 N          65.1114   92.3692   12.5519 N.ar    1  UNL1       -0.3238
     10 C          65.7343   93.6393   12.0533 C.3     1  UNL1        0.1052
     11 C          65.5052   94.0819   10.6385 C.3     1  UNL1        0.0263
     12 C          66.5863   94.4668   12.9694 C.3     1  UNL1        0.1122
     13 N          66.8154   94.0241   14.3841 N.am    1  UNL1       -0.2978
     14 C          66.1924   92.7540   14.8828 C.2     1  UNL1        0.2618
     15 O          66.4215   92.3113   16.2976 O.2     1  UNL1       -0.2686
     16 H          67.3745   94.5673   14.9854 H       1  UNL1        0.1498
     17 O          61.6182   87.8795   10.7227 O.3     1  UNL1       -0.4791
     18 N          63.1083   83.6669   11.2552 N.3     1  UNL1       -0.2737
     19 C          62.6485   84.4558   12.4452 C.3     1  UNL1        0.0758
     20 C          62.1518   85.8600   12.2677 C.3     1  UNL1        0.0609
     21 C          62.1149   86.4753   10.9002 C.3     1  UNL1        0.1687
     22 C          62.5747   85.6863    9.7101 C.3     1  UNL1        0.0609
     23 C          63.0714   84.2821    9.8877 C.3     1  UNL1        0.0758
     24 C          64.3569   81.8845   12.6743 C.3     1  UNL1        0.0173
     25 C          63.6050   82.2627   11.4327 C.3     1  UNL1        0.0576
     26 C          63.3497   81.2367   10.3686 C.3     1  UNL1        0.0173
@<TRIPOS>BOND
     1    24    25    1
     2    25    26    1
     3    25    18    1
     4    18    19    1
     5    19    20    1
     6    20    21    1
     7    21    17    1
     8    17     1    1
     9     1     2   ar
    10     2     3   ar
    11     3     4   ar
    12     4     5   ar
    13     5     6   ar
    14     5     7   ar
    15     7     8   ar
    16     8     9   ar
    17     9    10    1
    18    10    11    1
    19    10    12    1
    20    12    13    1
    21    13    14   am
    22    14    15    2
    23    21    22    1
    24    22    23    1
    25    23    18    1
    26     6     1   ar
    27    14     8    1
    28     9     4   ar
    29    13    16    1
@<TRIPOS>MOLECULE
*****
 26 29 0 0 0
SMALL
GASTEIGER

@<TRIPOS>ATOM
      1 C          63.9012   87.6783   14.5965 C.ar    1  UNL1        0.1385
      2 C          63.2821   87.8267   13.2384 C.ar    1  UNL1        0.0384
      3 C          63.5236   89.0708   12.4360 C.ar    1  UNL1        0.0203
      4 C          64.3843   90.1664   12.9917 C.ar    1  UNL1        0.0602
      5 C          65.0034   90.0180   14.3499 C.ar    1  UNL1        0.0204
      6 C          64.7619   88.7739   15.1523 C.ar    1  UNL1        0.0384
      7 C          65.7998   91.2569   14.6341 C.ar    1  UNL1        0.0233
      8 C          65.6730   92.1710   13.4516 C.ar    1  UNL1        0.1140
      9 N          64.7981   91.4971   12.4365 N.ar    1  UNL1       -0.3238
     10 C          64.4913   92.1821   11.1379 C.3     1  UNL1        0.1052
     11 C          63.6164   91.5082   10.1228 C.3     1  UNL1        0.0263
     12 C          65.0594   93.5410   10.8542 C.3     1  UNL1        0.1122
     13 N          65.9343   94.2150   11.8693 N.am    1  UNL1       -0.2978
     14 C          66.2411   93.5299   13.1680 C.2     1  UNL1        0.2618
     15 O          67.1160   94.2039   14.1831 O.2     1  UNL1       -0.2686
     16 H          66.3072   95.1069   11.6831 H       1  UNL1        0.1498
     17 O          63.6597   86.4341   15.3990 O.3     1  UNL1       -0.4791
     18 N          63.0546   82.4931   13.3129 N.3     1  UNL1       -0.2737
     19 C          62.0600   82.9621   14.3330 C.3     1  UNL1        0.0758
     20 C          62.2617   84.2759   15.0285 C.3     1  UNL1        0.0609
     21 C          63.4580   85.1205   14.7037 C.3     1  UNL1        0.1687
     22 C          64.4526   84.6514   13.6834 C.3     1  UNL1        0.0609
     23 C          64.2509   83.3378   12.9880 C.3     1  UNL1        0.0758
     24 C          63.1102   81.0634   11.1443 C.3     1  UNL1        0.0173
     25 C          62.8529   81.1795   12.6175 C.3     1  UNL1        0.0576
     26 C          62.3938   79.9818   13.3953 C.3     1  UNL1        0.0173
@<TRIPOS>BOND
     1    24    25    1
     2    25    26    1
     3    25    18    1
     4    18    19    1
     5    19    20    1
     6    20    21    1
     7    21    17    1
     8    17     1    1
     9     1     2   ar
    10     2     3   ar
    11     3     4   ar
    12     4     5   ar
    13     5     6   ar
    14     5     7   ar
    15     7     8   ar
    16     8     9   ar
    17     9    10    1
    18    10    11    1
    19    10    12    1
    20    12    13    1
    21    13    14   am
    22    14    15    2
    23    21    22    1
    24    22    23    1
    25    23    18    1
    26     6     1   ar
    27    14     8    1
    28     9     4   ar
    29    13    16    1
@<TRIPOS>MOLECULE
*****
 26 29 0 0 0
SMALL
GASTEIGER

@<TRIPOS>ATOM
      1 C          62.6075   88.8390   11.4841 C.ar    1  UNL1        0.1385
      2 C          63.1310   88.7818   12.8886 C.ar    1  UNL1        0.0384
      3 C          64.0057   89.8839   13.4084 C.ar    1  UNL1        0.0203
      4 C          64.3569   91.0432   12.5237 C.ar    1  UNL1        0.0602
      5 C          63.8333   91.1005   11.1192 C.ar    1  UNL1        0.0204
      6 C          62.9587   89.9983   10.5994 C.ar    1  UNL1        0.0384
      7 C          64.3447   92.3599   10.4849 C.ar    1  UNL1        0.0233
      8 C          65.1842   93.0811   11.4974 C.ar    1  UNL1        0.1140
      9 N          65.1918   92.2674   12.7574 N.ar    1  UNL1       -0.3238
     10 C          65.9579   92.7461   13.9548 C.3     1  UNL1        0.1052
     11 C          65.9654   91.9324   15.2149 C.3     1  UNL1        0.0263
     12 C          66.7165   94.0386   13.8922 C.3     1  UNL1        0.1122
     13 N          66.7089   94.8523   12.6321 N.am    1  UNL1       -0.2978
     14 C          65.9428   94.3735   11.4347 C.2     1  UNL1        0.2618
     15 O          65.9353   95.1873   10.1745 O.2     1  UNL1       -0.2686
     16 H          67.2068   95.7007   12.5910 H       1  UNL1        0.1498
     17 O          61.7328   87.7369   10.9642 O.3     1  UNL1       -0.4791
     18 N          63.0126   83.4463   11.4148 N.3     1  UNL1       -0.2737
     19 C          62.6745   84.2595   12.6290 C.3     1  UNL1        0.0758
     20 C          62.2479   85.6898   12.4788 C.3     1  UNL1        0.0609
     21 C          62.1594   86.3067   11.1144 C.3     1  UNL1        0.1687
     22 C          62.4975   85.4934    9.9002 C.3     1  UNL1        0.0609
     23 C          62.9240   84.0632   10.0504 C.3     1  UNL1        0.0758
     24 C          63.8842   81.5027   12.9023 C.3     1  UNL1        0.0173
     25 C          63.4391   82.0161   11.5650 C.3     1  UNL1        0.0576
     26 C          63.4207   81.0993   10.3779 C.3     1  UNL1        0.0173
@<TRIPOS>BOND
     1    24    25    1
     2    25    26    1
     3    25    18    1
     4    18    19    1
     5    19    20    1
     6    20    21    1
     7    21    17    1
     8    17     1    1
     9     1     2   ar
    10     2     3   ar
    11     3     4   ar
    12     4     5   ar
    13     5     6   ar
    14     5     7   ar
    15     7     8   ar
    16     8     9   ar
    17     9    10    1
    18    10    11    1
    19    10    12    1
    20    12    13    1
    21    13    14   am
    22    14    15    2
    23    21    22    1
    24    22    23    1
    25    23    18    1
    26     6     1   ar
    27    14     8    1
    28     9     4   ar
    29    13    16    1
@<TRIPOS>MOLECULE
*****
 26 29 0 0 0
SMALL
GASTEIGER

@<TRIPOS>ATOM
      1 C          62.0159   89.1471   11.3625 C.ar    1  UNL1        0.1385
      2 C          62.4143   90.1178   10.2907 C.ar    1  UNL1        0.0384
      3 C          63.4077   91.2008   10.5913 C.ar    1  UNL1        0.0203
      4 C          64.0025   91.3131   11.9637 C.ar    1  UNL1        0.0602
      5 C          63.6041   90.3423   13.0356 C.ar    1  UNL1        0.0204
      6 C          62.6107   89.2594   12.7350 C.ar    1  UNL1        0.0384
      7 C          64.3530   90.6987   14.2854 C.ar    1  UNL1        0.0233
      8 C          65.2144   91.8897   13.9860 C.ar    1  UNL1        0.1140
      9 N          64.9978   92.2694   12.5511 N.ar    1  UNL1       -0.3238
     10 C          65.7347   93.4369   11.9649 C.3     1  UNL1        0.1052
     11 C          65.5182   93.8166   10.5300 C.3     1  UNL1        0.0263
     12 C          66.6883   94.2246   12.8134 C.3     1  UNL1        0.1122
     13 N          66.9049   93.8449   14.2483 N.am    1  UNL1       -0.2978
     14 C          66.1679   92.6774   14.8346 C.2     1  UNL1        0.2618
     15 O          66.3845   92.2976   16.2696 O.2     1  UNL1       -0.2686
     16 H          67.5308   94.3619   14.8053 H       1  UNL1        0.1498
     17 O          61.0225   88.0641   11.0620 O.3     1  UNL1       -0.4791
     18 N          61.5804   85.4383    7.4503 N.3     1  UNL1       -0.2737
     19 C          62.7041   85.6184    8.4273 C.3     1  UNL1        0.0758
     20 C          62.5182   86.4937    9.6313 C.3     1  UNL1        0.0609
     21 C          61.2085   87.1888    9.8581 C.3     1  UNL1        0.1687
     22 C          60.0847   87.0087    8.8810 C.3     1  UNL1        0.0609
     23 C          60.2706   86.1334    7.6771 C.3     1  UNL1        0.0758
     24 C          63.0862   84.5379    5.5342 C.3     1  UNL1        0.0173
     25 C          61.7663   84.5631    6.2464 C.3     1  UNL1        0.0576
     26 C          60.6324   83.7130    5.7548 C.3     1  UNL1        0.0173
@<TRIPOS>BOND
     1    24    25    1
     2    25    26    1
     3    25    18    1
     4    18    19    1
     5    19    20    1
     6    20    21    1
     7    21    17    1
     8    17     1    1
     9     1     2   ar
    10     2     3   ar
    11     3     4   ar
    12     4     5   ar
    13     5     6   ar
    14     5     7   ar
    15     7     8   ar
    16     8     9   ar
    17     9    10    1
    18    10    11    1
    19    10    12    1
    20    12    13    1
    21    13    14   am
    22    14    15    2
    23    21    22    1
    24    22    23    1
    25    23    18    1
    26     6     1   ar
    27    14     8    1
    28     9     4   ar
    29    13    16    1
@<TRIPOS>MOLECULE
*****
 26 29 0 0 0
SMALL
GASTEIGER

@<TRIPOS>ATOM
      1 C          62.3762   87.8383   10.8831 C.ar    1  UNL1        0.1385
      2 C          62.2170   86.7906    9.8215 C.ar    1  UNL1        0.0384
      3 C          62.4548   85.3468   10.1511 C.ar    1  UNL1        0.0203
      4 C          62.8517   84.9506   11.5423 C.ar    1  UNL1        0.0602
      5 C          63.0109   85.9982   12.6039 C.ar    1  UNL1        0.0204
      6 C          62.7731   87.4421   12.2743 C.ar    1  UNL1        0.0384
      7 C          63.4086   85.3115   13.8768 C.ar    1  UNL1        0.0233
      8 C          63.4952   83.8395   13.6020 C.ar    1  UNL1        0.1140
      9 N          63.1510   83.6163   12.1591 N.ar    1  UNL1       -0.3238
     10 C          63.1546   82.2272   11.5934 C.3     1  UNL1        0.1052
     11 C          62.8104   82.0041   10.1506 C.3     1  UNL1        0.0263
     12 C          63.5024   81.0611   12.4705 C.3     1  UNL1        0.1122
     13 N          63.8465   81.2842   13.9133 N.am    1  UNL1       -0.2978
     14 C          63.8429   82.6735   14.4791 C.2     1  UNL1        0.2618
     15 O          64.1871   82.8966   15.9220 O.2     1  UNL1       -0.2686
     16 H          64.0748   80.5189   14.4890 H       1  UNL1        0.1498
     17 O          62.1385   89.2822   10.5535 O.3     1  UNL1       -0.4791
     18 N          64.9949   92.4281   12.0348 N.3     1  UNL1       -0.2737
     19 C          64.5744   92.4151   10.5951 C.3     1  UNL1        0.0758
     20 C          63.6222   91.3664   10.1013 C.3     1  UNL1        0.0609
     21 C          63.0906   90.3308   11.0473 C.3     1  UNL1        0.1687
     22 C          63.5112   90.3439   12.4871 C.3     1  UNL1        0.0609
     23 C          64.4633   91.3925   12.9808 C.3     1  UNL1        0.0758
     24 C          66.2857   94.6513   11.6593 C.3     1  UNL1        0.0173
     25 C          65.9471   93.4767   12.5286 C.3     1  UNL1        0.0576
     26 C          66.5606   93.3506   13.8916 C.3     1  UNL1        0.0173
@<TRIPOS>BOND
     1    24    25    1
     2    25    26    1
     3    25    18    1
     4    18    19    1
     5    19    20    1
     6    20    21    1
     7    21    17    1
     8    17     1    1
     9     1     2   ar
    10     2     3   ar
    11     3     4   ar
    12     4     5   ar
    13     5     6   ar
    14     5     7   ar
    15     7     8   ar
    16     8     9   ar
    17     9    10    1
    18    10    11    1
    19    10    12    1
    20    12    13    1
    21    13    14   am
    22    14    15    2
    23    21    22    1
    24    22    23    1
    25    23    18    1
    26     6     1   ar
    27    14     8    1
    28     9     4   ar
    29    13    16    1
@<TRIPOS>MOLECULE
*****
 26 29 0 0 0
SMALL
GASTEIGER

@<TRIPOS>ATOM
      1 C          64.2079   90.1876   13.9301 C.ar    1  UNL1        0.1385
      2 C          64.6773   89.1958   14.9528 C.ar    1  UNL1        0.0384
      3 C          64.4397   87.7301   14.7403 C.ar    1  UNL1        0.0203
      4 C          63.7327   87.2562   13.5052 C.ar    1  UNL1        0.0602
      5 C          63.2633   88.2480   12.4825 C.ar    1  UNL1        0.0204
      6 C          63.5009   89.7137   12.6950 C.ar    1  UNL1        0.0384
      7 C          62.5995   87.4894   11.3717 C.ar    1  UNL1        0.0233
      8 C          62.6588   86.0287   11.7078 C.ar    1  UNL1        0.1140
      9 N          63.3591   85.8846   13.0264 N.ar    1  UNL1       -0.3238
     10 C          63.5661   84.5231   13.6207 C.3     1  UNL1        0.1052
     11 C          64.2665   84.3789   14.9393 C.3     1  UNL1        0.0263
     12 C          63.0728   83.3056   12.8965 C.3     1  UNL1        0.1122
     13 N          62.3725   83.4498   11.5779 N.am    1  UNL1       -0.2978
     14 C          62.1655   84.8114   10.9835 C.2     1  UNL1        0.2618
     15 O          61.4651   84.9556    9.6649 O.2     1  UNL1       -0.2686
     16 H          62.0487   82.6508   11.1025 H       1  UNL1        0.1498
     17 O          64.4455   91.6534   14.1425 O.3     1  UNL1       -0.4791
     18 N          66.4282   94.1005   10.9284 N.3     1  UNL1       -0.2737
     19 C          65.4609   93.0162   10.5562 C.3     1  UNL1        0.0758
     20 C          64.7999   92.2005   11.6275 C.3     1  UNL1        0.0609
     21 C          65.1064   92.4691   13.0711 C.3     1  UNL1        0.1687
     22 C          66.0737   93.5534   13.4433 C.3     1  UNL1        0.0609
     23 C          66.7346   94.3691   12.3720 C.3     1  UNL1        0.0758
     24 C          66.9208   96.4065    9.8378 C.3     1  UNL1        0.0173
     25 C          67.0891   94.9161    9.8570 C.3     1  UNL1        0.0576
     26 C          67.9183   94.2414    8.8047 C.3     1  UNL1        0.0173
@<TRIPOS>BOND
     1    24    25    1
     2    25    26    1
     3    25    18    1
     4    18    19    1
     5    19    20    1
     6    20    21    1
     7    21    17    1
     8    17     1    1
     9     1     2   ar
    10     2     3   ar
    11     3     4   ar
    12     4     5   ar
    13     5     6   ar
    14     5     7   ar
    15     7     8   ar
    16     8     9   ar
    17     9    10    1
    18    10    11    1
    19    10    12    1
    20    12    13    1
    21    13    14   am
    22    14    15    2
    23    21    22    1
    24    22    23    1
    25    23    18    1
    26     6     1   ar
    27    14     8    1
    28     9     4   ar
    29    13    16    1
@<TRIPOS>MOLECULE
*****
 26 29 0 0 0
SMALL
GASTEIGER

@<TRIPOS>ATOM
      1 C          61.4967   89.5578   11.2289 C.ar    1  UNL1        0.1385
      2 C          61.6857   89.3977   12.7083 C.ar    1  UNL1        0.0384
      3 C          62.7868   90.1378   13.4082 C.ar    1  UNL1        0.0203
      4 C          63.6989   91.0380   12.6286 C.ar    1  UNL1        0.0602
      5 C          63.5100   91.1981   11.1493 C.ar    1  UNL1        0.0204
      6 C          62.4089   90.4580   10.4494 C.ar    1  UNL1        0.0384
      7 C          64.5570   92.1482   10.6484 C.ar    1  UNL1        0.0233
      8 C          65.3931   92.5754   11.8183 C.ar    1  UNL1        0.1140
      9 N          64.8628   91.8892   13.0421 N.ar    1  UNL1       -0.3238
     10 C          65.5081   92.1282   14.3749 C.3     1  UNL1        0.1052
     11 C          64.9778   91.4420   15.5988 C.3     1  UNL1        0.0263
     12 C          66.6838   93.0532   14.4838 C.3     1  UNL1        0.1122
     13 N          67.2142   93.7394   13.2599 N.am    1  UNL1       -0.2978
     14 C          66.5688   93.5004   11.9271 C.2     1  UNL1        0.2618
     15 O          67.0992   94.1867   10.7032 O.2     1  UNL1       -0.2686
     16 H          67.9858   94.3466   13.3314 H       1  UNL1        0.1498
     17 O          60.3956   88.8177   10.5290 O.3     1  UNL1       -0.4791
     18 N          61.3898   85.6880    7.4523 N.3     1  UNL1       -0.2737
     19 C          62.3708   86.0077    8.5409 C.3     1  UNL1        0.0758
     20 C          62.0395   87.0510    9.5665 C.3     1  UNL1        0.0609
     21 C          60.7270   87.7745    9.5034 C.3     1  UNL1        0.1687
     22 C          59.7459   87.4547    8.4147 C.3     1  UNL1        0.0609
     23 C          60.0773   86.4114    7.3892 C.3     1  UNL1        0.0758
     24 C          63.1300   84.4996    5.9326 C.3     1  UNL1        0.0173
     25 C          61.7211   84.6447    6.4267 C.3     1  UNL1        0.0576
     26 C          60.6437   83.7465    5.8952 C.3     1  UNL1        0.0173
@<TRIPOS>BOND
     1    24    25    1
     2    25    26    1
     3    25    18    1
     4    18    19    1
     5    19    20    1
     6    20    21    1
     7    21    17    1
     8    17     1    1
     9     1     2   ar
    10     2     3   ar
    11     3     4   ar
    12     4     5   ar
    13     5     6   ar
    14     5     7   ar
    15     7     8   ar
    16     8     9   ar
    17     9    10    1
    18    10    11    1
    19    10    12    1
    20    12    13    1
    21    13    14   am
    22    14    15    2
    23    21    22    1
    24    22    23    1
    25    23    18    1
    26     6     1   ar
    27    14     8    1
    28     9     4   ar
    29    13    16    1
@<TRIPOS>MOLECULE
*****
 26 29 0 0 0
SMALL
GASTEIGER

@<TRIPOS>ATOM
      1 C          62.7917   90.1055   13.1334 C.ar    1  UNL1        0.1385
      2 C          63.4439   88.7566   13.0614 C.ar    1  UNL1        0.0384
      3 C          63.0811   87.8060   11.9593 C.ar    1  UNL1        0.0203
      4 C          62.0660   88.2043   10.9293 C.ar    1  UNL1        0.0602
      5 C          61.4137   89.5531   11.0013 C.ar    1  UNL1        0.0204
      6 C          61.7766   90.5037   12.1034 C.ar    1  UNL1        0.0384
      7 C          60.4556   89.6665    9.8528 C.ar    1  UNL1        0.0233
      8 C          60.5156   88.3878    9.0710 C.ar    1  UNL1        0.1140
      9 N          61.5109   87.4840    9.7362 N.ar    1  UNL1       -0.3238
     10 C          61.7831   86.1221    9.1698 C.3     1  UNL1        0.1052
     11 C          62.7784   85.2184    9.8350 C.3     1  UNL1        0.0263
     12 C          61.0601   85.6639    7.9380 C.3     1  UNL1        0.1122
     13 N          60.0648   86.5677    7.2727 N.am    1  UNL1       -0.2978
     14 C          59.7926   87.9297    7.8392 C.2     1  UNL1        0.2618
     15 O          58.7972   88.8335    7.1739 O.2     1  UNL1       -0.2686
     16 H          59.5903   86.2670    6.4643 H       1  UNL1        0.1498
     17 O          63.1546   91.0562   14.2356 O.3     1  UNL1       -0.4791
     18 N          67.4220   92.3918   14.7409 N.3     1  UNL1       -0.2737
     19 C          66.9130   92.0047   13.3841 C.3     1  UNL1        0.0758
     20 C          65.4904   91.5594   13.2156 C.3     1  UNL1        0.0609
     21 C          64.5770   91.5014   14.4040 C.3     1  UNL1        0.1687
     22 C          65.0861   91.8885   15.7609 C.3     1  UNL1        0.0609
     23 C          66.5085   92.3337   15.9293 C.3     1  UNL1        0.0758
     24 C          69.1940   93.8499   15.9590 C.3     1  UNL1        0.0173
     25 C          68.8444   92.8370   14.9093 C.3     1  UNL1        0.0576
     26 C          69.9173   92.2693   14.0281 C.3     1  UNL1        0.0173
@<TRIPOS>BOND
     1    24    25    1
     2    25    26    1
     3    25    18    1
     4    18    19    1
     5    19    20    1
     6    20    21    1
     7    21    17    1
     8    17     1    1
     9     1     2   ar
    10     2     3   ar
    11     3     4   ar
    12     4     5   ar
    13     5     6   ar
    14     5     7   ar
    15     7     8   ar
    16     8     9   ar
    17     9    10    1
    18    10    11    1
    19    10    12    1
    20    12    13    1
    21    13    14   am
    22    14    15    2
    23    21    22    1
    24    22    23    1
    25    23    18    1
    26     6     1   ar
    27    14     8    1
    28     9     4   ar
    29    13    16    1
