@<TRIPOS>MOLECULE
*****
 32 36 0 0 0
SMALL
GASTEIGER

@<TRIPOS>ATOM
      1 O          63.4153   87.2625   12.9656 O.2     1  UNL1       -0.2698
      2 C          62.7748   86.4902   11.8505 C.2     1  UNL1        0.2507
      3 N          61.7671   87.1548   10.9601 N.am    1  UNL1       -0.2723
      4 C          61.1267   86.3826    9.8450 C.3     1  UNL1        0.1257
      5 C          60.1189   87.0473    8.9547 C.3     1  UNL1        0.1637
      6 O          59.7516   88.4841    9.1794 O.3     1  UNL1       -0.3502
      7 C          60.3921   89.2564   10.2945 C.3     1  UNL1        0.1622
      8 C          61.3998   88.5918   11.1849 C.3     1  UNL1        0.1096
      9 C          63.1422   85.0533   11.6257 C.ar    1  UNL1        0.0738
     10 C          63.3044   84.5303   10.2293 C.ar    1  UNL1        0.0061
     11 C          63.6717   83.0935   10.0045 C.ar    1  UNL1        0.0011
     12 C          63.8767   82.1797   11.1762 C.ar    1  UNL1        0.0130
     13 C          63.7145   82.7027   12.5726 C.ar    1  UNL1        0.0771
     14 CL         63.9195   81.7888   13.7443 Cl      1  UNL1       -0.0806
     15 C          63.3472   84.1395   12.7974 C.ar    1  UNL1        0.1177
     16 N          63.1849   84.6625   14.1939 N.ar    1  UNL1       -0.1468
     17 N          64.2678   85.2589   15.0434 N.ar    1  UNL1       -0.1447
     18 C          63.6634   85.6460   16.3606 C.ar    1  UNL1        0.1446
     19 C          62.2070   85.2889   16.3251 C.ar    1  UNL1        0.1446
     20 N          61.9113   84.6811   14.9860 N.ar    1  UNL1       -0.1447
     21 C          62.0403   89.3640   12.3000 C.3     1  UNL1        0.0488
     22 C          63.0972   90.3839   11.9955 C.ar    1  UNL1       -0.0189
     23 C          63.1905   90.9803   10.6224 C.ar    1  UNL1       -0.0041
     24 C          64.2474   92.0002   10.3179 C.ar    1  UNL1        0.0013
     25 C          65.2111   92.4236   11.3866 C.ar    1  UNL1        0.0209
     26 C          65.1179   91.8271   12.7597 C.ar    1  UNL1        0.1026
     27 C          64.0609   90.8072   13.0642 C.ar    1  UNL1        0.0167
     28 N          66.0815   92.2505   13.8284 N.ar    1  UNL1       -0.1478
     29 N          67.5542   92.4728   13.6499 N.ar    1  UNL1       -0.1447
     30 C          68.1246   92.8856   14.9744 C.ar    1  UNL1        0.1446
     31 C          67.0045   92.9184   15.9715 C.ar    1  UNL1        0.1446
     32 N          65.7417   92.5259   15.2633 N.ar    1  UNL1       -0.1447
@<TRIPOS>BOND
     1     1     2    2
     2     2     9    1
     3     9    10   ar
     4    10    11   ar
     5    11    12   ar
     6    12    13   ar
     7    13    14    1
     8    13    15   ar
     9    15    16    1
    10    16    17   ar
    11    17    18   ar
    12    18    19   ar
    13    19    20   ar
    14     2     3   am
    15     3     4    1
    16     4     5    1
    17     5     6    1
    18     6     7    1
    19     7     8    1
    20     8    21    1
    21    21    22    1
    22    22    23   ar
    23    23    24   ar
    24    24    25   ar
    25    25    26   ar
    26    26    28    1
    27    28    29   ar
    28    29    30   ar
    29    30    31   ar
    30    31    32   ar
    31    26    27   ar
    32    15     9   ar
    33    20    16   ar
    34     8     3    1
    35    27    22   ar
    36    32    28   ar
@<TRIPOS>MOLECULE
*****
 32 36 0 0 0
SMALL
GASTEIGER

@<TRIPOS>ATOM
      1 O          63.6776   87.4873   13.7898 O.2     1  UNL1       -0.2698
      2 C          63.0842   87.0762   12.4749 C.2     1  UNL1        0.2507
      3 N          62.4652   88.1058   11.5767 N.am    1  UNL1       -0.2723
      4 C          61.8718   87.6946   10.2619 C.3     1  UNL1        0.1257
      5 C          61.2529   88.7243    9.3636 C.3     1  UNL1        0.1637
      6 O          61.2274   90.1650    9.7803 O.3     1  UNL1       -0.3502
      7 C          61.8208   90.5762   11.0951 C.3     1  UNL1        0.1622
      8 C          62.4397   89.5466   11.9933 C.3     1  UNL1        0.1096
      9 C          63.1097   85.6353   12.0583 C.ar    1  UNL1        0.0738
     10 C          63.1435   85.2761   10.6024 C.ar    1  UNL1        0.0061
     11 C          63.1690   83.8354   10.1858 C.ar    1  UNL1        0.0011
     12 C          63.1607   82.7539   11.2251 C.ar    1  UNL1        0.0130
     13 C          63.1268   83.1131   12.6810 C.ar    1  UNL1        0.0771
     14 CL         63.1185   82.0315   13.7204 Cl      1  UNL1       -0.0806
     15 C          63.1013   84.5539   13.0977 C.ar    1  UNL1        0.1177
     16 N          63.0675   84.9131   14.5536 N.ar    1  UNL1       -0.1468
     17 N          64.2501   85.2870   15.3972 N.ar    1  UNL1       -0.1447
     18 C          63.7586   85.5664   16.7866 C.ar    1  UNL1        0.1446
     19 C          62.2723   85.3653   16.8017 C.ar    1  UNL1        0.1446
     20 N          61.8451   84.9615   15.4216 N.ar    1  UNL1       -0.1447
     21 C          63.0332   89.9577   13.3082 C.3     1  UNL1        0.0488
     22 C          64.3261   90.7173   13.3427 C.ar    1  UNL1       -0.0189
     23 C          65.2575   90.5598   14.5079 C.ar    1  UNL1       -0.0041
     24 C          66.5506   91.3194   14.5425 C.ar    1  UNL1        0.0013
     25 C          66.9121   92.2366   13.4119 C.ar    1  UNL1        0.0209
     26 C          65.9806   92.3940   12.2467 C.ar    1  UNL1        0.1026
     27 C          64.6876   91.6344   12.2122 C.ar    1  UNL1        0.0167
     28 N          66.3421   93.3111   11.1161 N.ar    1  UNL1       -0.1478
     29 N          67.5082   93.1480   10.1868 N.ar    1  UNL1       -0.1447
     30 C          67.4878   94.2884    9.2127 C.ar    1  UNL1        0.1446
     31 C          66.3091   95.1565    9.5399 C.ar    1  UNL1        0.1446
     32 N          65.6009   94.5525   10.7163 N.ar    1  UNL1       -0.1447
@<TRIPOS>BOND
     1     1     2    2
     2     2     9    1
     3     9    10   ar
     4    10    11   ar
     5    11    12   ar
     6    12    13   ar
     7    13    14    1
     8    13    15   ar
     9    15    16    1
    10    16    17   ar
    11    17    18   ar
    12    18    19   ar
    13    19    20   ar
    14     2     3   am
    15     3     4    1
    16     4     5    1
    17     5     6    1
    18     6     7    1
    19     7     8    1
    20     8    21    1
    21    21    22    1
    22    22    23   ar
    23    23    24   ar
    24    24    25   ar
    25    25    26   ar
    26    26    28    1
    27    28    29   ar
    28    29    30   ar
    29    30    31   ar
    30    31    32   ar
    31    26    27   ar
    32    15     9   ar
    33    20    16   ar
    34     8     3    1
    35    27    22   ar
    36    32    28   ar
@<TRIPOS>MOLECULE
*****
 32 36 0 0 0
SMALL
GASTEIGER

@<TRIPOS>ATOM
      1 O          62.7343   89.9961   11.5264 O.2     1  UNL1       -0.2698
      2 C          62.7614   88.4968   11.5632 C.2     1  UNL1        0.2507
      3 N          63.3738   87.7862   12.7337 N.am    1  UNL1       -0.2723
      4 C          63.4008   86.2869   12.7705 C.3     1  UNL1        0.1257
      5 C          64.0132   85.5764   13.9410 C.3     1  UNL1        0.1637
      6 O          64.5985   86.3651   15.0747 O.3     1  UNL1       -0.3502
      7 C          64.5715   87.8644   15.0379 C.3     1  UNL1        0.1622
      8 C          63.9591   88.5750   13.8675 C.3     1  UNL1        0.1096
      9 C          62.1760   87.7081   10.4295 C.ar    1  UNL1        0.0738
     10 C          63.0250   86.7195    9.6866 C.ar    1  UNL1        0.0061
     11 C          62.4398   85.9307    8.5529 C.ar    1  UNL1        0.0011
     12 C          61.0055   86.1307    8.1620 C.ar    1  UNL1        0.0130
     13 C          60.1565   87.1193    8.9049 C.ar    1  UNL1        0.0771
     14 CL         58.7221   87.3192    8.5140 Cl      1  UNL1       -0.0806
     15 C          60.7418   87.9080   10.0386 C.ar    1  UNL1        0.1177
     16 N          59.8928   88.8966   10.7814 N.ar    1  UNL1       -0.1468
     17 N          59.6703   90.3301   10.3998 N.ar    1  UNL1       -0.1447
     18 C          58.7572   90.9448   11.4188 C.ar    1  UNL1        0.1446
     19 C          58.4153   89.8912   12.4303 C.ar    1  UNL1        0.1446
     20 N          59.1171   88.6254   12.0363 N.ar    1  UNL1       -0.1447
     21 C          63.9321   90.0743   13.8307 C.3     1  UNL1        0.0488
     22 C          65.2165   90.8462   13.7657 C.ar    1  UNL1       -0.0189
     23 C          66.1606   90.8307   14.9312 C.ar    1  UNL1       -0.0041
     24 C          67.4451   91.6026   14.8663 C.ar    1  UNL1        0.0013
     25 C          67.7855   92.3901   13.6358 C.ar    1  UNL1        0.0209
     26 C          66.8413   92.4056   12.4703 C.ar    1  UNL1        0.1026
     27 C          65.5569   91.6337   12.5352 C.ar    1  UNL1        0.0167
     28 N          67.1817   93.1931   11.2398 N.ar    1  UNL1       -0.1478
     29 N          67.9122   92.6760   10.0361 N.ar    1  UNL1       -0.1447
     30 C          68.0333   93.7992    9.0494 C.ar    1  UNL1        0.1446
     31 C          67.3777   95.0106    9.6432 C.ar    1  UNL1        0.1446
     32 N          66.8513   94.6360   10.9970 N.ar    1  UNL1       -0.1447
@<TRIPOS>BOND
     1     1     2    2
     2     2     9    1
     3     9    10   ar
     4    10    11   ar
     5    11    12   ar
     6    12    13   ar
     7    13    14    1
     8    13    15   ar
     9    15    16    1
    10    16    17   ar
    11    17    18   ar
    12    18    19   ar
    13    19    20   ar
    14     2     3   am
    15     3     4    1
    16     4     5    1
    17     5     6    1
    18     6     7    1
    19     7     8    1
    20     8    21    1
    21    21    22    1
    22    22    23   ar
    23    23    24   ar
    24    24    25   ar
    25    25    26   ar
    26    26    28    1
    27    28    29   ar
    28    29    30   ar
    29    30    31   ar
    30    31    32   ar
    31    26    27   ar
    32    15     9   ar
    33    20    16   ar
    34     8     3    1
    35    27    22   ar
    36    32    28   ar
@<TRIPOS>MOLECULE
*****
 32 36 0 0 0
SMALL
GASTEIGER

@<TRIPOS>ATOM
      1 O          63.8747   88.1777   12.4569 O.2     1  UNL1       -0.2698
      2 C          63.7269   87.2649   13.6380 C.2     1  UNL1        0.2507
      3 N          63.5124   87.8389   15.0071 N.am    1  UNL1       -0.2723
      4 C          63.3646   86.9262   16.1883 C.3     1  UNL1        0.1257
      5 C          63.1501   87.5002   17.5575 C.3     1  UNL1        0.1637
      6 O          63.0835   88.9869   17.7454 O.3     1  UNL1       -0.3502
      7 C          63.2314   89.8996   16.5643 C.3     1  UNL1        0.1622
      8 C          63.4458   89.3256   15.1952 C.3     1  UNL1        0.1096
      9 C          63.7935   85.7782   13.4500 C.ar    1  UNL1        0.0738
     10 C          64.5998   84.9381   14.3955 C.ar    1  UNL1        0.0061
     11 C          64.6664   83.4514   14.2075 C.ar    1  UNL1        0.0011
     12 C          63.9267   82.8049   13.0740 C.ar    1  UNL1        0.0130
     13 C          63.1204   83.6451   12.1285 C.ar    1  UNL1        0.0771
     14 CL         62.3807   82.9985   10.9949 Cl      1  UNL1       -0.0806
     15 C          63.0538   85.1317   12.3165 C.ar    1  UNL1        0.1177
     16 N          62.2475   85.9719   11.3710 N.ar    1  UNL1       -0.1468
     17 N          62.5588   86.2167    9.9242 N.ar    1  UNL1       -0.1447
     18 C          61.4920   87.1109    9.3653 C.ar    1  UNL1        0.1446
     19 C          60.5213   87.4187   10.4666 C.ar    1  UNL1        0.1446
     20 N          60.9882   86.7148   11.7062 N.ar    1  UNL1       -0.1447
     21 C          63.5937   90.2383   14.0140 C.3     1  UNL1        0.0488
     22 C          64.6684   91.2846   14.0046 C.ar    1  UNL1       -0.0189
     23 C          65.3782   91.6422   15.2767 C.ar    1  UNL1       -0.0041
     24 C          66.4530   92.6885   15.2673 C.ar    1  UNL1        0.0013
     25 C          66.8180   93.3772   13.9857 C.ar    1  UNL1        0.0209
     26 C          66.1082   93.0195   12.7135 C.ar    1  UNL1        0.1026
     27 C          65.0335   91.9733   12.7230 C.ar    1  UNL1        0.0167
     28 N          66.4733   93.7082   11.4319 N.ar    1  UNL1       -0.1478
     29 N          65.8249   94.9424   10.8785 N.ar    1  UNL1       -0.1447
     30 C          66.5017   95.2806    9.5833 C.ar    1  UNL1        0.1446
     31 C          67.5684   94.2554    9.3362 C.ar    1  UNL1        0.1446
     32 N          67.5509   93.2835   10.4787 N.ar    1  UNL1       -0.1447
@<TRIPOS>BOND
     1     1     2    2
     2     2     9    1
     3     9    10   ar
     4    10    11   ar
     5    11    12   ar
     6    12    13   ar
     7    13    14    1
     8    13    15   ar
     9    15    16    1
    10    16    17   ar
    11    17    18   ar
    12    18    19   ar
    13    19    20   ar
    14     2     3   am
    15     3     4    1
    16     4     5    1
    17     5     6    1
    18     6     7    1
    19     7     8    1
    20     8    21    1
    21    21    22    1
    22    22    23   ar
    23    23    24   ar
    24    24    25   ar
    25    25    26   ar
    26    26    28    1
    27    28    29   ar
    28    29    30   ar
    29    30    31   ar
    30    31    32   ar
    31    26    27   ar
    32    15     9   ar
    33    20    16   ar
    34     8     3    1
    35    27    22   ar
    36    32    28   ar
