@<TRIPOS>MOLECULE
*****
 37 39 0 0 0
SMALL
GASTEIGER

@<TRIPOS>ATOM
      1 C          62.3452   86.4880   10.7271 C.3     1  UNL1        0.1811
      2 O          63.1393   86.4235   11.9979 O.3     1  UNL1       -0.3784
      3 H          62.9295   87.1932   12.5497 H       1  UNL1        0.2106
      4 C          61.5510   86.5524    9.4561 C.3     1  UNL1        0.4197
      5 F          60.7569   86.6169    8.1852 F       1  UNL1       -0.1676
      6 F          62.7783   86.1956    8.6712 F       1  UNL1       -0.1676
      7 F          60.3236   86.9093   10.2410 F       1  UNL1       -0.1676
      8 C          61.7203   87.7732   11.1827 C.3     1  UNL1        0.0807
      9 C          65.3787   93.0596   11.7066 C.2     1  UNL1        0.1857
     10 C          64.6026   92.2255   10.7309 C.2     1  UNL1        0.0359
     11 C          63.8835   90.9959   11.2010 C.2     1  UNL1        0.0095
     12 C          63.0449   89.9850   10.4765 C.2     1  UNL1        0.0124
     13 C          62.5836   88.9647   11.4746 C.2     1  UNL1        0.0568
     14 N          63.1370   89.3450   12.8159 N.2     1  UNL1       -0.2661
     15 C          63.9404   90.6004   12.6468 C.3     1  UNL1        0.1661
     16 C          64.7165   91.4345   13.6225 C.2     1  UNL1        0.1025
     17 N          65.4356   92.6641   13.1524 N.2     1  UNL1       -0.2281
     18 S          66.0978   94.2891   11.2365 S.O2    1  UNL1        0.0250
     19 O          66.1278   94.8094   12.6430 O.2     1  UNL1       -0.1672
     20 O          66.0678   93.7689    9.8299 O.2     1  UNL1       -0.1672
     21 C          67.2104   95.6526    9.3252 C.3     1  UNL1        0.0276
     22 C          66.8169   95.5188   10.7664 C.3     1  UNL1        0.1577
     23 C          62.9700   85.2027   10.2714 C.3     1  UNL1        0.0398
     24 C          63.0008   84.0169   11.1895 C.3     1  UNL1        0.0216
     25 C          64.3018   83.5814   10.5833 C.3     1  UNL1        0.0045
     26 C          61.6997   84.4524   11.7958 C.3     1  UNL1        0.0045
     27 C          63.0317   82.8311   12.1076 C.ar    1  UNL1       -0.0184
     28 C          62.5279   81.5008   11.6317 C.ar    1  UNL1       -0.0041
     29 C          62.5588   80.3150   12.5498 C.ar    1  UNL1       -0.0003
     30 C          63.0934   80.4595   13.9438 C.ar    1  UNL1        0.0001
     31 C          63.5972   81.7898   14.4197 C.ar    1  UNL1        0.0042
     32 C          63.5663   82.9756   13.5016 C.ar    1  UNL1        0.0492
     33 C          64.0700   84.3059   13.9775 C.2     1  UNL1        0.2424
     34 N          65.5397   84.6048   13.9503 N.am    1  UNL1       -0.3253
     35 O          63.1041   85.3374   14.4806 O.2     1  UNL1       -0.2704
     36 H          66.1737   83.9278   13.6201 H       1  UNL1        0.1453
     37 H          65.8704   85.4779   14.2627 H       1  UNL1        0.1453
@<TRIPOS>BOND
     1    21    22    1
     2    22    18    1
     3    18    19    2
     4    18    20    2
     5    18     9    1
     6     9    10    2
     7    10    11    1
     8    11    12    2
     9    12    13    1
    10    13     8    1
    11     8     1    1
    12     1     2    1
    13     1    23    1
    14    23    24    1
    15    24    25    1
    16    24    26    1
    17    24    27    1
    18    27    28   ar
    19    28    29   ar
    20    29    30   ar
    21    30    31   ar
    22    31    32   ar
    23    32    33    1
    24    33    34   am
    25    33    35    2
    26     1     4    1
    27     4     5    1
    28     4     6    1
    29     4     7    1
    30    13    14    2
    31    14    15    1
    32    15    16    1
    33    16    17    2
    34    17     9    1
    35    15    11    1
    36    32    27   ar
    37     2     3    1
    38    34    36    1
    39    34    37    1
@<TRIPOS>MOLECULE
*****
 37 39 0 0 0
SMALL
GASTEIGER

@<TRIPOS>ATOM
      1 C          63.6698   86.8246   15.7863 C.3     1  UNL1        0.1811
      2 O          64.2285   87.0469   14.4121 O.3     1  UNL1       -0.3784
      3 H          64.2416   87.9973   14.2183 H       1  UNL1        0.2106
      4 C          63.1110   86.6022   17.1605 C.3     1  UNL1        0.4197
      5 F          62.5523   86.3798   18.5346 F       1  UNL1       -0.1676
      6 F          62.3474   87.8891   17.0582 F       1  UNL1       -0.1676
      7 F          63.8747   85.3152   17.2628 F       1  UNL1       -0.1676
      8 C          63.4938   88.3047   15.9542 C.3     1  UNL1        0.0807
      9 C          65.4545   92.5087   11.4726 C.2     1  UNL1        0.1857
     10 C          65.7838   91.9523   12.8261 C.2     1  UNL1        0.0359
     11 C          64.9044   90.9036   13.4401 C.2     1  UNL1        0.0095
     12 C          64.9759   90.1744   14.7490 C.2     1  UNL1        0.0124
     13 C          63.8114   89.2314   14.8183 C.2     1  UNL1        0.0568
     14 N          63.0203   89.3778   13.5523 N.2     1  UNL1       -0.2661
     15 C          63.6958   90.4113   12.7005 C.3     1  UNL1        0.1661
     16 C          63.3666   90.9677   11.3470 C.2     1  UNL1        0.1025
     17 N          64.2459   92.0164   10.7330 N.2     1  UNL1       -0.2281
     18 S          66.3339   93.5574   10.8587 S.O2    1  UNL1        0.0250
     19 O          67.5448   92.7377   11.1929 O.2     1  UNL1       -0.1672
     20 O          65.1229   94.3772   10.5244 O.2     1  UNL1       -0.1672
     21 C          67.9795   94.3027    8.9914 C.3     1  UNL1        0.0276
     22 C          67.2133   94.6061   10.2447 C.3     1  UNL1        0.1577
     23 C          63.8458   85.3445   15.6183 C.3     1  UNL1        0.0398
     24 C          63.6659   84.7162   14.2681 C.3     1  UNL1        0.0216
     25 C          65.1485   84.5129   14.1653 C.3     1  UNL1        0.0045
     26 C          62.1833   84.9195   14.3711 C.3     1  UNL1        0.0045
     27 C          63.4861   84.0879   12.9180 C.ar    1  UNL1       -0.0184
     28 C          63.5366   84.9373   11.6827 C.ar    1  UNL1       -0.0041
     29 C          63.3567   84.3091   10.3326 C.ar    1  UNL1       -0.0003
     30 C          63.1264   82.8312   10.2177 C.ar    1  UNL1        0.0001
     31 C          63.0759   81.9818   11.4530 C.ar    1  UNL1        0.0042
     32 C          63.2558   82.6102   12.8032 C.ar    1  UNL1        0.0492
     33 C          63.2053   81.7607   14.0384 C.2     1  UNL1        0.2424
     34 N          61.9249   81.6337   14.8095 N.am    1  UNL1       -0.3253
     35 O          64.4351   81.0383   14.5026 O.2     1  UNL1       -0.2704
     36 H          61.1177   82.1079   14.5048 H       1  UNL1        0.1453
     37 H          61.8917   81.0762   15.6203 H       1  UNL1        0.1453
@<TRIPOS>BOND
     1    21    22    1
     2    22    18    1
     3    18    19    2
     4    18    20    2
     5    18     9    1
     6     9    10    2
     7    10    11    1
     8    11    12    2
     9    12    13    1
    10    13     8    1
    11     8     1    1
    12     1     2    1
    13     1    23    1
    14    23    24    1
    15    24    25    1
    16    24    26    1
    17    24    27    1
    18    27    28   ar
    19    28    29   ar
    20    29    30   ar
    21    30    31   ar
    22    31    32   ar
    23    32    33    1
    24    33    34   am
    25    33    35    2
    26     1     4    1
    27     4     5    1
    28     4     6    1
    29     4     7    1
    30    13    14    2
    31    14    15    1
    32    15    16    1
    33    16    17    2
    34    17     9    1
    35    15    11    1
    36    32    27   ar
    37     2     3    1
    38    34    36    1
    39    34    37    1
@<TRIPOS>MOLECULE
*****
 37 39 0 0 0
SMALL
GASTEIGER

@<TRIPOS>ATOM
      1 C          62.3672   86.4200   10.6903 C.3     1  UNL1        0.1811
      2 O          63.0866   86.2869   11.9998 O.3     1  UNL1       -0.3784
      3 H          62.8735   87.0463   12.5644 H       1  UNL1        0.2106
      4 C          61.6479   86.5531    9.3808 C.3     1  UNL1        0.4197
      5 F          60.9285   86.6862    8.0713 F       1  UNL1       -0.1676
      6 F          60.3823   86.8931   10.1106 F       1  UNL1       -0.1676
      7 F          62.9135   86.2131    8.6510 F       1  UNL1       -0.1676
      8 C          61.7634   87.7126   11.1535 C.3     1  UNL1        0.0807
      9 C          65.6920   92.2679   13.4813 C.2     1  UNL1        0.1857
     10 C          65.0638   90.9435   13.7998 C.2     1  UNL1        0.0359
     11 C          64.1555   90.2854   12.8038 C.2     1  UNL1        0.0095
     12 C          63.3984   88.9909   12.8380 C.2     1  UNL1        0.0124
     13 C          62.6505   88.8572   11.5446 C.2     1  UNL1        0.0568
     14 N          62.9453   90.0689   10.7112 N.2     1  UNL1       -0.2661
     15 C          63.8755   90.9516   11.4894 C.3     1  UNL1        0.1661
     16 C          64.5038   92.2760   11.1709 C.2     1  UNL1        0.1025
     17 N          65.4120   92.9341   12.1669 N.2     1  UNL1       -0.2281
     18 S          66.6002   92.9260   14.4773 S.O2    1  UNL1        0.0250
     19 O          67.6214   93.1459   13.4008 O.2     1  UNL1       -0.1672
     20 O          65.5790   92.7061   15.5539 O.2     1  UNL1       -0.1672
     21 C          68.7170   92.8557   15.9820 C.3     1  UNL1        0.0276
     22 C          67.5085   93.5841   15.4733 C.3     1  UNL1        0.1577
     23 C          62.9711   85.1274   10.2272 C.3     1  UNL1        0.0398
     24 C          62.9970   83.9406   11.1442 C.3     1  UNL1        0.0216
     25 C          61.6886   84.3710   11.7382 C.3     1  UNL1        0.0045
     26 C          64.3054   83.5101   10.5502 C.3     1  UNL1        0.0045
     27 C          63.0228   82.7538   12.0612 C.ar    1  UNL1       -0.0184
     28 C          62.5770   81.4111   11.5629 C.ar    1  UNL1       -0.0041
     29 C          62.6028   80.2244   12.4799 C.ar    1  UNL1       -0.0003
     30 C          63.0745   80.3803   13.8953 C.ar    1  UNL1        0.0001
     31 C          63.5203   81.7230   14.3936 C.ar    1  UNL1        0.0042
     32 C          63.4945   82.9098   13.4765 C.ar    1  UNL1        0.0492
     33 C          63.9403   84.2526   13.9749 C.2     1  UNL1        0.2424
     34 N          65.3791   84.6584   13.8518 N.am    1  UNL1       -0.3253
     35 O          62.9473   85.1895   14.5963 O.2     1  UNL1       -0.2704
     36 H          66.0308   84.0434   13.4439 H       1  UNL1        0.1453
     37 H          65.6717   85.5396   14.1788 H       1  UNL1        0.1453
@<TRIPOS>BOND
     1    21    22    1
     2    22    18    1
     3    18    19    2
     4    18    20    2
     5    18     9    1
     6     9    10    2
     7    10    11    1
     8    11    12    2
     9    12    13    1
    10    13     8    1
    11     8     1    1
    12     1     2    1
    13     1    23    1
    14    23    24    1
    15    24    25    1
    16    24    26    1
    17    24    27    1
    18    27    28   ar
    19    28    29   ar
    20    29    30   ar
    21    30    31   ar
    22    31    32   ar
    23    32    33    1
    24    33    34   am
    25    33    35    2
    26     1     4    1
    27     4     5    1
    28     4     6    1
    29     4     7    1
    30    13    14    2
    31    14    15    1
    32    15    16    1
    33    16    17    2
    34    17     9    1
    35    15    11    1
    36    32    27   ar
    37     2     3    1
    38    34    36    1
    39    34    37    1
@<TRIPOS>MOLECULE
*****
 37 39 0 0 0
SMALL
GASTEIGER

@<TRIPOS>ATOM
      1 C          63.5606   87.1117   15.8463 C.3     1  UNL1        0.1811
      2 O          64.1074   87.2809   14.4599 O.3     1  UNL1       -0.3784
      3 H          64.1228   88.2235   14.2312 H       1  UNL1        0.2106
      4 C          63.0137   86.9424   17.2329 C.3     1  UNL1        0.4197
      5 F          62.4669   86.7732   18.6193 F       1  UNL1       -0.1676
      6 F          62.2856   88.2475   17.1050 F       1  UNL1       -0.1676
      7 F          63.7419   85.6373   17.3608 F       1  UNL1       -0.1676
      8 C          63.3925   88.5978   15.9614 C.3     1  UNL1        0.0807
      9 C          65.5530   92.5842   11.3741 C.2     1  UNL1        0.1857
     10 C          65.8774   92.0144   12.7232 C.2     1  UNL1        0.0359
     11 C          64.9339   91.0479   13.3757 C.2     1  UNL1        0.0095
     12 C          64.9858   90.3269   14.6901 C.2     1  UNL1        0.0124
     13 C          63.7499   89.4847   14.8058 C.2     1  UNL1        0.0568
     14 N          62.9343   89.6851   13.5631 N.2     1  UNL1       -0.2661
     15 C          63.6660   90.6513   12.6792 C.3     1  UNL1        0.1661
     16 C          63.3417   91.2211   11.3300 C.2     1  UNL1        0.1025
     17 N          64.2851   92.1875   10.6775 N.2     1  UNL1       -0.2281
     18 S          66.4965   93.5506   10.7216 S.O2    1  UNL1        0.0250
     19 O          65.3617   94.5048   10.4940 O.2     1  UNL1       -0.1672
     20 O          67.6313   92.5964   10.9491 O.2     1  UNL1       -0.1672
     21 C          67.3595   94.7620    8.5913 C.3     1  UNL1        0.0276
     22 C          67.4400   94.5171   10.0690 C.3     1  UNL1        0.1577
     23 C          63.7286   85.6256   15.7312 C.3     1  UNL1        0.0398
     24 C          63.7627   84.9772   14.3790 C.3     1  UNL1        0.0216
     25 C          65.1936   85.3957   14.2144 C.3     1  UNL1        0.0045
     26 C          62.3316   84.5586   14.5437 C.3     1  UNL1        0.0045
     27 C          63.7967   84.3287   13.0269 C.ar    1  UNL1       -0.0184
     28 C          64.4917   83.0121   12.8438 C.ar    1  UNL1       -0.0041
     29 C          64.5257   82.3637   11.4916 C.ar    1  UNL1       -0.0003
     30 C          63.8648   83.0319   10.3225 C.ar    1  UNL1        0.0001
     31 C          63.1699   84.3485   10.5056 C.ar    1  UNL1        0.0042
     32 C          63.1359   84.9970   11.8579 C.ar    1  UNL1        0.0492
     33 C          62.4409   86.3136   12.0410 C.2     1  UNL1        0.2424
     34 N          63.2331   87.5874   12.0320 N.am    1  UNL1       -0.3253
     35 O          60.9539   86.3565   12.2331 O.2     1  UNL1       -0.2704
     36 H          64.2090   87.5593   11.9059 H       1  UNL1        0.1453
     37 H          62.7770   88.4516   12.1521 H       1  UNL1        0.1453
@<TRIPOS>BOND
     1    21    22    1
     2    22    18    1
     3    18    19    2
     4    18    20    2
     5    18     9    1
     6     9    10    2
     7    10    11    1
     8    11    12    2
     9    12    13    1
    10    13     8    1
    11     8     1    1
    12     1     2    1
    13     1    23    1
    14    23    24    1
    15    24    25    1
    16    24    26    1
    17    24    27    1
    18    27    28   ar
    19    28    29   ar
    20    29    30   ar
    21    30    31   ar
    22    31    32   ar
    23    32    33    1
    24    33    34   am
    25    33    35    2
    26     1     4    1
    27     4     5    1
    28     4     6    1
    29     4     7    1
    30    13    14    2
    31    14    15    1
    32    15    16    1
    33    16    17    2
    34    17     9    1
    35    15    11    1
    36    32    27   ar
    37     2     3    1
    38    34    36    1
    39    34    37    1
@<TRIPOS>MOLECULE
*****
 37 39 0 0 0
SMALL
GASTEIGER

@<TRIPOS>ATOM
      1 C          61.3429   87.9832    9.5085 C.3     1  UNL1        0.1811
      2 O          62.7826   88.0813    9.9177 O.3     1  UNL1       -0.3784
      3 H          62.9214   88.9006   10.4180 H       1  UNL1        0.2106
      4 C          59.9031   87.8850    9.0993 C.3     1  UNL1        0.4197
      5 F          58.4633   87.7868    8.6900 F       1  UNL1       -0.1676
      6 F          60.3235   87.4855    7.7160 F       1  UNL1       -0.1676
      7 F          59.4826   88.2845   10.4826 F       1  UNL1       -0.1676
      8 C          61.0616   89.2923   10.1844 C.3     1  UNL1        0.0807
      9 C          65.7587   92.4662   13.2612 C.2     1  UNL1        0.1857
     10 C          64.6551   91.4687   13.4531 C.2     1  UNL1        0.0359
     11 C          63.8028   91.0597   12.2885 C.2     1  UNL1        0.0095
     12 C          62.6511   90.1055   12.1736 C.2     1  UNL1        0.0124
     13 C          62.1908   90.1044   10.7460 C.2     1  UNL1        0.0568
     14 N          63.0579   91.0578    9.9786 N.2     1  UNL1       -0.2661
     15 C          64.0542   91.6482   10.9318 C.3     1  UNL1        0.1661
     16 C          65.1579   92.6458   10.7399 C.2     1  UNL1        0.1025
     17 N          66.0102   93.0547   11.9046 N.2     1  UNL1       -0.2281
     18 S          66.6110   92.8751   14.4258 S.O2    1  UNL1        0.0250
     19 O          67.7868   93.0367   13.5086 O.2     1  UNL1       -0.1672
     20 O          65.4351   92.7135   15.3431 O.2     1  UNL1       -0.1672
     21 C          68.5032   92.3447   16.1253 C.3     1  UNL1        0.0276
     22 C          67.4633   93.2841   15.5905 C.3     1  UNL1        0.1577
     23 C          61.6242   86.6740    8.8327 C.3     1  UNL1        0.0398
     24 C          62.3598   85.5931    9.5680 C.3     1  UNL1        0.0216
     25 C          61.2643   85.5438   10.5914 C.3     1  UNL1        0.0045
     26 C          63.4554   85.6425    8.5445 C.3     1  UNL1        0.0045
     27 C          63.0954   84.5123   10.3033 C.ar    1  UNL1       -0.0184
     28 C          63.6484   83.3371    9.5528 C.ar    1  UNL1       -0.0041
     29 C          64.3840   82.2563   10.2881 C.ar    1  UNL1       -0.0003
     30 C          64.5666   82.3506   11.7740 C.ar    1  UNL1        0.0001
     31 C          64.0136   83.5258   12.5245 C.ar    1  UNL1        0.0042
     32 C          63.2780   84.6066   11.7891 C.ar    1  UNL1        0.0492
     33 C          62.7251   85.7818   12.5396 C.2     1  UNL1        0.2424
     34 N          63.4171   87.1107   12.4676 N.am    1  UNL1       -0.3253
     35 O          61.4802   85.6281   13.3621 O.2     1  UNL1       -0.2704
     36 H          64.2342   87.2116   11.9278 H       1  UNL1        0.1453
     37 H          63.0542   87.8820   12.9602 H       1  UNL1        0.1453
@<TRIPOS>BOND
     1    21    22    1
     2    22    18    1
     3    18    19    2
     4    18    20    2
     5    18     9    1
     6     9    10    2
     7    10    11    1
     8    11    12    2
     9    12    13    1
    10    13     8    1
    11     8     1    1
    12     1     2    1
    13     1    23    1
    14    23    24    1
    15    24    25    1
    16    24    26    1
    17    24    27    1
    18    27    28   ar
    19    28    29   ar
    20    29    30   ar
    21    30    31   ar
    22    31    32   ar
    23    32    33    1
    24    33    34   am
    25    33    35    2
    26     1     4    1
    27     4     5    1
    28     4     6    1
    29     4     7    1
    30    13    14    2
    31    14    15    1
    32    15    16    1
    33    16    17    2
    34    17     9    1
    35    15    11    1
    36    32    27   ar
    37     2     3    1
    38    34    36    1
    39    34    37    1
@<TRIPOS>MOLECULE
*****
 37 39 0 0 0
SMALL
GASTEIGER

@<TRIPOS>ATOM
      1 C          63.6709   86.8521   15.5738 C.3     1  UNL1        0.1811
      2 O          64.0821   87.1058   14.1538 O.3     1  UNL1       -0.3784
      3 H          63.9336   88.0393   13.9360 H       1  UNL1        0.2106
      4 C          63.2597   86.5984   16.9939 C.3     1  UNL1        0.4197
      5 F          62.8486   86.3446   18.4139 F       1  UNL1       -0.1676
      6 F          63.2933   85.1205   16.7395 F       1  UNL1       -0.1676
      7 F          63.2262   88.0762   17.2483 F       1  UNL1       -0.1676
      8 C          63.2820   88.2935   15.7187 C.3     1  UNL1        0.0807
      9 C          65.8783   92.9394   12.0747 C.2     1  UNL1        0.1857
     10 C          64.6245   92.1479   12.3017 C.2     1  UNL1        0.0359
     11 C          64.5801   91.1060   13.3800 C.2     1  UNL1        0.0095
     12 C          63.4935   90.1767   13.8336 C.2     1  UNL1        0.0124
     13 C          64.0315   89.3520   14.9651 C.2     1  UNL1        0.0568
     14 N          65.4505   89.7715   15.2109 N.2     1  UNL1       -0.2661
     15 C          65.7896   90.8556   14.2311 C.3     1  UNL1        0.1661
     16 C          67.0434   91.6471   14.0041 C.2     1  UNL1        0.1025
     17 N          67.0878   92.6889   12.9259 N.2     1  UNL1       -0.2281
     18 S          65.9227   93.9812   10.9966 S.O2    1  UNL1        0.0250
     19 O          67.0347   94.6819   11.7194 O.2     1  UNL1       -0.1672
     20 O          64.8106   93.2805   10.2737 O.2     1  UNL1       -0.1672
     21 C          65.0564   96.2130    9.9873 C.3     1  UNL1        0.0276
     22 C          65.9671   95.0232    9.9183 C.3     1  UNL1        0.1577
     23 C          64.0598   85.4107   15.4289 C.3     1  UNL1        0.0398
     24 C          63.8591   84.7077   14.1191 C.3     1  UNL1        0.0216
     25 C          62.3939   85.0243   14.1738 C.3     1  UNL1        0.0045
     26 C          65.3243   84.3912   14.0644 C.3     1  UNL1        0.0045
     27 C          63.6583   84.0048   12.8093 C.ar    1  UNL1       -0.0184
     28 C          63.7311   84.7764   11.5251 C.ar    1  UNL1       -0.0041
     29 C          63.5303   84.0735   10.2153 C.ar    1  UNL1       -0.0003
     30 C          63.2566   82.5988   10.1898 C.ar    1  UNL1        0.0001
     31 C          63.1838   81.8272   11.4740 C.ar    1  UNL1        0.0042
     32 C          63.3846   82.5302   12.7838 C.ar    1  UNL1        0.0492
     33 C          63.3118   81.7586   14.0681 C.2     1  UNL1        0.2424
     34 N          62.1083   81.8886   14.9540 N.am    1  UNL1       -0.3253
     35 O          64.4424   80.8569   14.4665 O.2     1  UNL1       -0.2704
     36 H          61.3662   82.4804   14.6925 H       1  UNL1        0.1453
     37 H          62.0605   81.3822   15.7969 H       1  UNL1        0.1453
@<TRIPOS>BOND
     1    21    22    1
     2    22    18    1
     3    18    19    2
     4    18    20    2
     5    18     9    1
     6     9    10    2
     7    10    11    1
     8    11    12    2
     9    12    13    1
    10    13     8    1
    11     8     1    1
    12     1     2    1
    13     1    23    1
    14    23    24    1
    15    24    25    1
    16    24    26    1
    17    24    27    1
    18    27    28   ar
    19    28    29   ar
    20    29    30   ar
    21    30    31   ar
    22    31    32   ar
    23    32    33    1
    24    33    34   am
    25    33    35    2
    26     1     4    1
    27     4     5    1
    28     4     6    1
    29     4     7    1
    30    13    14    2
    31    14    15    1
    32    15    16    1
    33    16    17    2
    34    17     9    1
    35    15    11    1
    36    32    27   ar
    37     2     3    1
    38    34    36    1
    39    34    37    1
@<TRIPOS>MOLECULE
*****
 37 39 0 0 0
SMALL
GASTEIGER

@<TRIPOS>ATOM
      1 C          61.6130   86.6048   10.3819 C.3     1  UNL1        0.1811
      2 O          62.4985   86.9387   11.5456 O.3     1  UNL1       -0.3784
      3 H          62.4195   87.8833   11.7514 H       1  UNL1        0.2106
      4 C          60.7274   86.2708    9.2181 C.3     1  UNL1        0.4197
      5 F          59.8419   85.9368    8.0544 F       1  UNL1       -0.1676
      6 F          61.8579   85.5268    8.5714 F       1  UNL1       -0.1676
      7 F          59.5969   87.0149    9.8648 F       1  UNL1       -0.1676
      8 C          61.1703   88.0360   10.3081 C.3     1  UNL1        0.0807
      9 C          65.1799   92.9468   11.4959 C.2     1  UNL1        0.1857
     10 C          64.4420   92.2339   10.4018 C.2     1  UNL1        0.0359
     11 C          63.5791   91.0506   10.7265 C.2     1  UNL1        0.0095
     12 C          62.7387   90.1547    9.8654 C.2     1  UNL1        0.0124
     13 C          62.0945   89.1308   10.7523 C.2     1  UNL1        0.0568
     14 N          62.5366   89.3938   12.1613 N.2     1  UNL1       -0.2661
     15 C          63.4542   90.5803   12.1453 C.3     1  UNL1        0.1661
     16 C          64.1921   91.2933   13.2395 C.2     1  UNL1        0.1025
     17 N          65.0549   92.4765   12.9148 N.2     1  UNL1       -0.2281
     18 S          66.0427   94.1300   11.1712 S.O2    1  UNL1        0.0250
     19 O          66.2206   94.4022   12.6355 O.2     1  UNL1       -0.1672
     20 O          65.8648   93.8579    9.7068 O.2     1  UNL1       -0.1672
     21 C          67.5765   95.4076    9.5083 C.3     1  UNL1        0.0276
     22 C          66.9056   95.3133   10.8465 C.3     1  UNL1        0.1577
     23 C          62.0556   85.1735   10.4557 C.3     1  UNL1        0.0398
     24 C          62.7848   84.6755   11.6683 C.3     1  UNL1        0.0216
     25 C          61.6373   85.1040   12.5342 C.3     1  UNL1        0.0045
     26 C          63.9323   84.2471   10.8024 C.3     1  UNL1        0.0045
     27 C          63.5138   84.1776   12.8810 C.ar    1  UNL1       -0.0184
     28 C          64.3568   85.1194   13.6886 C.ar    1  UNL1       -0.0041
     29 C          65.0859   84.6214   14.9012 C.ar    1  UNL1       -0.0003
     30 C          64.9720   83.1816   15.3062 C.ar    1  UNL1        0.0001
     31 C          64.1289   82.2398   14.4986 C.ar    1  UNL1        0.0042
     32 C          63.3999   82.7378   13.2859 C.ar    1  UNL1        0.0492
     33 C          62.5568   81.7960   12.4783 C.2     1  UNL1        0.2424
     34 N          63.0170   81.3537   11.1208 N.am    1  UNL1       -0.3253
     35 O          61.2537   81.2964   13.0280 O.2     1  UNL1       -0.2704
     36 H          63.8723   81.6816   10.7599 H       1  UNL1        0.1453
     37 H          62.4637   80.7356   10.5907 H       1  UNL1        0.1453
@<TRIPOS>BOND
     1    21    22    1
     2    22    18    1
     3    18    19    2
     4    18    20    2
     5    18     9    1
     6     9    10    2
     7    10    11    1
     8    11    12    2
     9    12    13    1
    10    13     8    1
    11     8     1    1
    12     1     2    1
    13     1    23    1
    14    23    24    1
    15    24    25    1
    16    24    26    1
    17    24    27    1
    18    27    28   ar
    19    28    29   ar
    20    29    30   ar
    21    30    31   ar
    22    31    32   ar
    23    32    33    1
    24    33    34   am
    25    33    35    2
    26     1     4    1
    27     4     5    1
    28     4     6    1
    29     4     7    1
    30    13    14    2
    31    14    15    1
    32    15    16    1
    33    16    17    2
    34    17     9    1
    35    15    11    1
    36    32    27   ar
    37     2     3    1
    38    34    36    1
    39    34    37    1
@<TRIPOS>MOLECULE
*****
 37 39 0 0 0
SMALL
GASTEIGER

@<TRIPOS>ATOM
      1 C          61.6705   87.1512   10.0855 C.3     1  UNL1        0.1811
      2 O          62.9253   87.4077   10.8662 O.3     1  UNL1       -0.3784
      3 H          63.0159   88.3596   11.0290 H       1  UNL1        0.2106
      4 C          60.4155   86.8947    9.3048 C.3     1  UNL1        0.4197
      5 F          59.1607   86.6381    8.5241 F       1  UNL1       -0.1676
      6 F          61.1990   86.0912    8.3095 F       1  UNL1       -0.1676
      7 F          59.6321   87.6981   10.3000 F       1  UNL1       -0.1676
      8 C          61.3754   88.6218   10.0766 C.3     1  UNL1        0.0807
      9 C          65.5623   92.3908   13.2179 C.2     1  UNL1        0.1857
     10 C          64.6719   91.1935   13.3712 C.2     1  UNL1        0.0359
     11 C          63.8503   90.7162   12.2104 C.2     1  UNL1        0.0095
     12 C          62.8890   89.5742   12.0633 C.2     1  UNL1        0.0124
     13 C          62.3638   89.5886   10.6583 C.2     1  UNL1        0.0568
     14 N          63.0004   90.7394    9.9371 N.2     1  UNL1       -0.2661
     15 C          63.9192   91.4364   10.8964 C.3     1  UNL1        0.1661
     16 C          64.8097   92.6338   10.7432 C.2     1  UNL1        0.1025
     17 N          65.6312   93.1110   11.9039 N.2     1  UNL1       -0.2281
     18 S          66.3838   92.8680   14.3786 S.O2    1  UNL1        0.0250
     19 O          67.4600   93.3138   13.4337 O.2     1  UNL1       -0.1672
     20 O          65.3076   92.4221   15.3237 O.2     1  UNL1       -0.1672
     21 C          68.3416   92.5085   16.0484 C.3     1  UNL1        0.0276
     22 C          67.2054   93.3452   15.5394 C.3     1  UNL1        0.1577
     23 C          61.9655   85.6806   10.0943 C.3     1  UNL1        0.0398
     24 C          62.6543   85.0609   11.2741 C.3     1  UNL1        0.0216
     25 C          61.5616   85.5582   12.1732 C.3     1  UNL1        0.0045
     26 C          63.7470   84.5635   10.3748 C.3     1  UNL1        0.0045
     27 C          63.3429   84.4412   12.4538 C.ar    1  UNL1       -0.0184
     28 C          63.6094   85.2601   13.6820 C.ar    1  UNL1       -0.0041
     29 C          64.2981   84.6404   14.8617 C.ar    1  UNL1       -0.0003
     30 C          64.7203   83.2018   14.8132 C.ar    1  UNL1        0.0001
     31 C          64.4539   82.3830   13.5850 C.ar    1  UNL1        0.0042
     32 C          63.7652   83.0027   12.4052 C.ar    1  UNL1        0.0492
     33 C          63.4987   82.1839   11.1770 C.2     1  UNL1        0.2424
     34 N          62.2481   81.3612   11.0809 N.am    1  UNL1       -0.3253
     35 O          64.4828   82.1877   10.0450 O.2     1  UNL1       -0.2704
     36 H          61.6022   81.3587   11.8239 H       1  UNL1        0.1453
     37 H          62.0732   80.8237   10.2748 H       1  UNL1        0.1453
@<TRIPOS>BOND
     1    21    22    1
     2    22    18    1
     3    18    19    2
     4    18    20    2
     5    18     9    1
     6     9    10    2
     7    10    11    1
     8    11    12    2
     9    12    13    1
    10    13     8    1
    11     8     1    1
    12     1     2    1
    13     1    23    1
    14    23    24    1
    15    24    25    1
    16    24    26    1
    17    24    27    1
    18    27    28   ar
    19    28    29   ar
    20    29    30   ar
    21    30    31   ar
    22    31    32   ar
    23    32    33    1
    24    33    34   am
    25    33    35    2
    26     1     4    1
    27     4     5    1
    28     4     6    1
    29     4     7    1
    30    13    14    2
    31    14    15    1
    32    15    16    1
    33    16    17    2
    34    17     9    1
    35    15    11    1
    36    32    27   ar
    37     2     3    1
    38    34    36    1
    39    34    37    1
