@<TRIPOS>MOLECULE
*****
 46 50 0 0 0
SMALL
GASTEIGER

@<TRIPOS>ATOM
      1 C          62.7957   85.5528   12.2218 C.ar    1  UNL1        0.1218
      2 C          62.0863   84.9223   11.0603 C.ar    1  UNL1        0.0208
      3 C          61.5316   85.7824    9.9636 C.ar    1  UNL1        0.0112
      4 C          61.6863   87.2730   10.0285 C.ar    1  UNL1        0.0611
      5 C          62.3957   87.9035   11.1901 C.ar    1  UNL1        0.1068
      6 N          62.9504   87.0434   12.2867 N.ar    1  UNL1       -0.2421
      7 C          63.3504   84.6928   13.3185 C.3     1  UNL1        0.3254
      8 F          64.6124   85.5036   13.3161 F       1  UNL1       -0.1949
      9 F          61.9917   84.1142   13.0555 F       1  UNL1       -0.1949
     10 O          64.4599   82.9728   15.5118 O.3     1  UNL1       -0.3755
     11 C          63.9051   83.8328   14.4151 C.3     1  UNL1        0.1932
     12 H          64.2787   83.3866   16.3702 H       1  UNL1        0.2110
     13 C          63.5019   82.6039   13.6554 C.ar    1  UNL1        0.0368
     14 C          62.4872   81.6632   14.2347 C.ar    1  UNL1        0.0028
     15 C          62.0840   80.4343   13.4750 C.ar    1  UNL1        0.0295
     16 C          62.6954   80.1461   12.1359 C.ar    1  UNL1        0.1424
     17 F          62.2922   78.9172   11.3762 F       1  UNL1       -0.2041
     18 C          63.7100   81.0867   11.5566 C.ar    1  UNL1        0.0590
     19 C          64.1133   82.3157   12.3163 C.ar    1  UNL1        0.1408
     20 F          65.1279   83.2564   11.7370 F       1  UNL1       -0.2043
     21 C          64.3084   85.0617   15.1749 C.3     1  UNL1        0.1679
     22 N          63.2860   85.8250   15.9636 N.ar    1  UNL1       -0.2078
     23 C          63.4099   87.2470   16.4249 C.ar    1  UNL1        0.2216
     24 N          62.1607   87.6013   17.1758 N.ar    1  UNL1       -0.1048
     25 N          61.2647   86.3982   17.1786 N.ar    1  UNL1       -0.0226
     26 N          61.9602   85.3005   16.4294 N.ar    1  UNL1       -0.0428
     27 C          61.1316   88.1330    8.9319 C.1     1  UNL1       -0.0582
     28 C          60.5769   88.9931    7.8353 C.1     1  UNL1       -0.0597
     29 C          60.0222   89.8532    6.7386 C.ar    1  UNL1        0.0422
     30 C          58.5383   90.0109    6.5871 C.ar    1  UNL1        0.0114
     31 C          57.9837   90.8710    5.4904 C.ar    1  UNL1        0.0375
     32 C          58.9130   91.5732    4.5453 C.ar    1  UNL1        0.1391
     33 C          60.3969   91.4155    4.6969 C.ar    1  UNL1        0.0375
     34 C          60.9515   90.5554    5.7935 C.ar    1  UNL1        0.0114
     35 O          58.3582   92.4333    3.4486 O.3     1  UNL1       -0.4706
     36 C          59.0212   92.4535    2.1033 C.3     1  UNL1        0.2320
     37 C          60.2866   93.2336    1.9023 C.ar    1  UNL1        0.0211
     38 C          60.2336   94.7263    1.7647 C.ar    1  UNL1       -0.0010
     39 C          61.4989   95.5063    1.5638 C.ar    1  UNL1       -0.0043
     40 C          62.8172   94.7936    1.5004 C.ar    1  UNL1       -0.0166
     41 C          62.8703   93.3009    1.6380 C.ar    1  UNL1       -0.0043
     42 C          61.6049   92.5209    1.8389 C.ar    1  UNL1       -0.0010
     43 C          64.0826   95.5738    1.2994 C.3     1  UNL1        0.0986
     44 C          64.8588   95.4284    0.0241 C.3     1  UNL1        0.3229
     45 F          66.0741   96.2745   -0.2148 F       1  UNL1       -0.1981
     46 F          64.4197   94.4368   -1.0122 F       1  UNL1       -0.1981
@<TRIPOS>BOND
     1    10    11    1
     2    11    21    1
     3    21    22    1
     4    22    23   ar
     5    23    24   ar
     6    24    25   ar
     7    25    26   ar
     8    11    13    1
     9    13    14   ar
    10    14    15   ar
    11    15    16   ar
    12    16    17    1
    13    16    18   ar
    14    18    19   ar
    15    19    20    1
    16    11     7    1
    17     7     8    1
    18     7     9    1
    19     7     1    1
    20     1     2   ar
    21     2     3   ar
    22     3     4   ar
    23     4    27    1
    24    27    28    3
    25    28    29    1
    26    29    30   ar
    27    30    31   ar
    28    31    32   ar
    29    32    35    1
    30    35    36    1
    31    36    37    1
    32    37    38   ar
    33    38    39   ar
    34    39    40   ar
    35    40    43    1
    36    43    44    1
    37    44    45    1
    38    44    46    1
    39    40    41   ar
    40    41    42   ar
    41    32    33   ar
    42    33    34   ar
    43     4     5   ar
    44     5     6   ar
    45    26    22   ar
    46    19    13   ar
    47     6     1   ar
    48    34    29   ar
    49    42    37   ar
    50    10    12    1
@<TRIPOS>MOLECULE
*****
 46 50 0 0 0
SMALL
GASTEIGER

@<TRIPOS>ATOM
      1 C          62.8202   85.7258   12.1280 C.ar    1  UNL1        0.1218
      2 C          62.2771   85.0719   10.8921 C.ar    1  UNL1        0.0208
      3 C          61.7322   85.9133    9.7762 C.ar    1  UNL1        0.0112
      4 C          61.7305   87.4085    9.8962 C.ar    1  UNL1        0.0611
      5 C          62.2737   88.0623   11.1321 C.ar    1  UNL1        0.1068
      6 N          62.8185   87.2210   12.2480 N.ar    1  UNL1       -0.2421
      7 C          63.3651   84.8844   13.2440 C.3     1  UNL1        0.3254
      8 F          64.4963   85.8533   13.4221 F       1  UNL1       -0.1949
      9 F          62.1357   84.1480   12.8011 F       1  UNL1       -0.1949
     10 O          64.4549   83.2019   15.4758 O.3     1  UNL1       -0.3755
     11 C          63.9100   84.0431   14.3599 C.3     1  UNL1        0.1932
     12 H          64.2702   83.6324   16.3252 H       1  UNL1        0.2110
     13 C          63.5065   82.8017   13.6210 C.ar    1  UNL1        0.0368
     14 C          62.4610   81.8929   14.1963 C.ar    1  UNL1        0.0028
     15 C          62.0575   80.6514   13.4574 C.ar    1  UNL1        0.0295
     16 C          62.6995   80.3188   12.1432 C.ar    1  UNL1        0.1424
     17 F          62.2961   79.0773   11.4043 F       1  UNL1       -0.2041
     18 C          63.7450   81.2275   11.5679 C.ar    1  UNL1        0.0590
     19 C          64.1485   82.4691   12.3068 C.ar    1  UNL1        0.1408
     20 F          65.1940   83.3778   11.7315 F       1  UNL1       -0.2043
     21 C          64.3135   85.2846   15.0989 C.3     1  UNL1        0.1679
     22 N          63.3243   85.9876   15.9804 N.ar    1  UNL1       -0.2078
     23 C          63.3749   87.4307   16.3867 C.ar    1  UNL1        0.2216
     24 N          62.1927   87.7059   17.2679 N.ar    1  UNL1       -0.1048
     25 N          61.4114   86.4329   17.4062 N.ar    1  UNL1       -0.0226
     26 N          62.1108   85.3710   16.6105 N.ar    1  UNL1       -0.0428
     27 C          61.1856   88.2498    8.7803 C.1     1  UNL1       -0.0582
     28 C          60.6408   89.0911    7.6644 C.1     1  UNL1       -0.0597
     29 C          60.0959   89.9326    6.5485 C.ar    1  UNL1        0.0422
     30 C          61.0324   90.5880    5.5772 C.ar    1  UNL1        0.0114
     31 C          60.4875   91.4293    4.4614 C.ar    1  UNL1        0.0375
     32 C          59.0061   91.6153    4.3168 C.ar    1  UNL1        0.1391
     33 C          58.0696   90.9599    5.2881 C.ar    1  UNL1        0.0375
     34 C          58.6145   90.1185    6.4039 C.ar    1  UNL1        0.0114
     35 O          58.4612   92.4567    3.2009 O.3     1  UNL1       -0.4706
     36 C          59.3940   93.2545    2.3388 C.3     1  UNL1        0.2320
     37 C          59.2636   93.2032    0.8453 C.ar    1  UNL1        0.0211
     38 C          57.9056   93.1248    0.2133 C.ar    1  UNL1       -0.0010
     39 C          57.7752   93.0735   -1.2801 C.ar    1  UNL1       -0.0043
     40 C          59.0029   93.1006   -2.1415 C.ar    1  UNL1       -0.0166
     41 C          60.3610   93.1789   -1.5095 C.ar    1  UNL1       -0.0043
     42 C          60.4913   93.2302   -0.0161 C.ar    1  UNL1       -0.0010
     43 C          58.8725   93.0492   -3.6350 C.3     1  UNL1        0.0986
     44 C          57.6055   92.5456   -4.2604 C.3     1  UNL1        0.3229
     45 F          57.3854   91.0711   -4.4257 F       1  UNL1       -0.1981
     46 F          56.5587   93.5164   -4.7205 F       1  UNL1       -0.1981
@<TRIPOS>BOND
     1    10    11    1
     2    11    21    1
     3    21    22    1
     4    22    23   ar
     5    23    24   ar
     6    24    25   ar
     7    25    26   ar
     8    11    13    1
     9    13    14   ar
    10    14    15   ar
    11    15    16   ar
    12    16    17    1
    13    16    18   ar
    14    18    19   ar
    15    19    20    1
    16    11     7    1
    17     7     8    1
    18     7     9    1
    19     7     1    1
    20     1     2   ar
    21     2     3   ar
    22     3     4   ar
    23     4    27    1
    24    27    28    3
    25    28    29    1
    26    29    30   ar
    27    30    31   ar
    28    31    32   ar
    29    32    35    1
    30    35    36    1
    31    36    37    1
    32    37    38   ar
    33    38    39   ar
    34    39    40   ar
    35    40    43    1
    36    43    44    1
    37    44    45    1
    38    44    46    1
    39    40    41   ar
    40    41    42   ar
    41    32    33   ar
    42    33    34   ar
    43     4     5   ar
    44     5     6   ar
    45    26    22   ar
    46    19    13   ar
    47     6     1   ar
    48    34    29   ar
    49    42    37   ar
    50    10    12    1
@<TRIPOS>MOLECULE
*****
 46 50 0 0 0
SMALL
GASTEIGER

@<TRIPOS>ATOM
      1 C          62.8389   85.5431   12.2042 C.ar    1  UNL1        0.1218
      2 C          62.2787   84.9034   10.9685 C.ar    1  UNL1        0.0208
      3 C          61.7389   85.7582    9.8603 C.ar    1  UNL1        0.0112
      4 C          61.7593   87.2526    9.9879 C.ar    1  UNL1        0.0611
      5 C          62.3195   87.8923   11.2237 C.ar    1  UNL1        0.1068
      6 N          62.8593   87.0375   12.3318 N.ar    1  UNL1       -0.2421
      7 C          63.3787   84.6883   13.3125 C.3     1  UNL1        0.3254
      8 F          64.6880   85.4163   13.2361 F       1  UNL1       -0.1949
      9 F          61.9777   84.1889   13.1183 F       1  UNL1       -0.1949
     10 O          64.4583   82.9789   15.5288 O.3     1  UNL1       -0.3755
     11 C          63.9185   83.8336   14.4206 C.3     1  UNL1        0.1932
     12 H          64.2794   83.4046   16.3818 H       1  UNL1        0.2110
     13 C          63.5021   82.6016   13.6732 C.ar    1  UNL1        0.0368
     14 C          62.4628   81.6882   14.2526 C.ar    1  UNL1        0.0028
     15 C          62.0465   80.4562   13.5051 C.ar    1  UNL1        0.0295
     16 C          62.6694   80.1375   12.1783 C.ar    1  UNL1        0.1424
     17 F          62.2530   78.9054   11.4309 F       1  UNL1       -0.2041
     18 C          63.7086   81.0508   11.5989 C.ar    1  UNL1        0.0590
     19 C          64.1250   82.2829   12.3464 C.ar    1  UNL1        0.1408
     20 F          65.1643   83.1963   11.7670 F       1  UNL1       -0.2043
     21 C          64.3349   85.0657   15.1681 C.3     1  UNL1        0.1679
     22 N          63.3265   85.8321   15.9717 N.ar    1  UNL1       -0.2078
     23 C          63.4752   87.2432   16.4584 C.ar    1  UNL1        0.2216
     24 N          62.2329   87.6051   17.2172 N.ar    1  UNL1       -0.1048
     25 N          61.3165   86.4177   17.1994 N.ar    1  UNL1       -0.0226
     26 N          61.9923   85.3220   16.4297 N.ar    1  UNL1       -0.0428
     27 C          61.2196   88.1074    8.8798 C.1     1  UNL1       -0.0582
     28 C          60.6798   88.9622    7.7716 C.1     1  UNL1       -0.0597
     29 C          60.1400   89.8170    6.6635 C.ar    1  UNL1        0.0422
     30 C          61.0819   90.5117    5.7253 C.ar    1  UNL1        0.0114
     31 C          60.5421   91.3665    4.6172 C.ar    1  UNL1        0.0375
     32 C          59.0604   91.5266    4.4473 C.ar    1  UNL1        0.1391
     33 C          58.1185   90.8319    5.3855 C.ar    1  UNL1        0.0375
     34 C          58.6583   89.9771    6.4936 C.ar    1  UNL1        0.0114
     35 O          58.5206   92.3814    3.3391 O.3     1  UNL1       -0.4706
     36 C          59.3187   93.5467    2.8341 C.3     1  UNL1        0.2320
     37 C          59.9514   93.4899    1.4752 C.ar    1  UNL1        0.0211
     38 C          61.4247   93.2413    1.3437 C.ar    1  UNL1       -0.0010
     39 C          62.0573   93.1845   -0.0152 C.ar    1  UNL1       -0.0043
     40 C          61.2166   93.3763   -1.2425 C.ar    1  UNL1       -0.0166
     41 C          59.7432   93.6250   -1.1110 C.ar    1  UNL1       -0.0043
     42 C          59.1106   93.6818    0.2479 C.ar    1  UNL1       -0.0010
     43 C          61.8493   93.3195   -2.6014 C.3     1  UNL1        0.0986
     44 C          63.3421   93.2533   -2.7315 C.3     1  UNL1        0.3229
     45 F          63.9773   92.1547   -3.5313 F       1  UNL1       -0.1981
     46 F          64.1999   94.2857   -2.0618 F       1  UNL1       -0.1981
@<TRIPOS>BOND
     1    10    11    1
     2    11    21    1
     3    21    22    1
     4    22    23   ar
     5    23    24   ar
     6    24    25   ar
     7    25    26   ar
     8    11    13    1
     9    13    14   ar
    10    14    15   ar
    11    15    16   ar
    12    16    17    1
    13    16    18   ar
    14    18    19   ar
    15    19    20    1
    16    11     7    1
    17     7     8    1
    18     7     9    1
    19     7     1    1
    20     1     2   ar
    21     2     3   ar
    22     3     4   ar
    23     4    27    1
    24    27    28    3
    25    28    29    1
    26    29    30   ar
    27    30    31   ar
    28    31    32   ar
    29    32    35    1
    30    35    36    1
    31    36    37    1
    32    37    38   ar
    33    38    39   ar
    34    39    40   ar
    35    40    43    1
    36    43    44    1
    37    44    45    1
    38    44    46    1
    39    40    41   ar
    40    41    42   ar
    41    32    33   ar
    42    33    34   ar
    43     4     5   ar
    44     5     6   ar
    45    26    22   ar
    46    19    13   ar
    47     6     1   ar
    48    34    29   ar
    49    42    37   ar
    50    10    12    1
@<TRIPOS>MOLECULE
*****
 46 50 0 0 0
SMALL
GASTEIGER

@<TRIPOS>ATOM
      1 C          62.8453   85.8998   12.0284 C.ar    1  UNL1        0.1218
      2 C          62.9523   87.3952   12.0752 C.ar    1  UNL1        0.0208
      3 C          62.3699   88.2238   10.9686 C.ar    1  UNL1        0.0112
      4 C          61.6805   87.5569    9.8154 C.ar    1  UNL1        0.0611
      5 C          61.5736   86.0614    9.7686 C.ar    1  UNL1        0.1068
      6 N          62.1560   85.2329   10.8751 N.ar    1  UNL1       -0.2421
      7 C          63.4277   85.0712   13.1349 C.3     1  UNL1        0.3254
      8 F          64.6321   85.9647   13.1701 F       1  UNL1       -0.1949
      9 F          62.1183   84.4047   12.8330 F       1  UNL1       -0.1949
     10 O          64.5925   83.4141   15.3478 O.3     1  UNL1       -0.3755
     11 C          64.0101   84.2426   14.2413 C.3     1  UNL1        0.1932
     12 H          64.4108   83.8395   16.2004 H       1  UNL1        0.2110
     13 C          63.6253   82.9922   13.5076 C.ar    1  UNL1        0.0368
     14 C          64.3398   82.6141   12.2440 C.ar    1  UNL1        0.0028
     15 C          63.9550   81.3637   11.5103 C.ar    1  UNL1        0.0295
     16 C          62.8556   80.4914   12.0401 C.ar    1  UNL1        0.1424
     17 F          62.4708   79.2411   11.3063 F       1  UNL1       -0.2041
     18 C          62.1411   80.8696   13.3036 C.ar    1  UNL1        0.0590
     19 C          62.5260   82.1200   14.0374 C.ar    1  UNL1        0.1408
     20 F          61.8115   82.4981   15.3009 F       1  UNL1       -0.2043
     21 C          64.3950   85.4930   14.9751 C.3     1  UNL1        0.1679
     22 N          63.4204   86.1429   15.9120 N.ar    1  UNL1       -0.2078
     23 C          62.4164   85.4334   16.7714 C.ar    1  UNL1        0.2216
     24 N          61.6542   86.4684   17.5446 N.ar    1  UNL1       -0.1048
     25 N          62.1872   87.8176   17.1631 N.ar    1  UNL1       -0.0226
     26 N          63.2788   87.6164   16.1542 N.ar    1  UNL1       -0.0428
     27 C          61.0981   88.3854    8.7089 C.1     1  UNL1       -0.0582
     28 C          60.5158   89.2139    7.6024 C.1     1  UNL1       -0.0597
     29 C          59.9334   90.0425    6.4959 C.ar    1  UNL1        0.0422
     30 C          60.8392   90.7737    5.5499 C.ar    1  UNL1        0.0114
     31 C          60.2568   91.6022    4.4435 C.ar    1  UNL1        0.0375
     32 C          58.7686   91.6996    4.2830 C.ar    1  UNL1        0.1391
     33 C          57.8628   90.9684    5.2289 C.ar    1  UNL1        0.0375
     34 C          58.4452   90.1399    6.3354 C.ar    1  UNL1        0.0114
     35 O          58.1862   92.5282    3.1765 O.3     1  UNL1       -0.4706
     36 C          58.8531   92.5610    1.8333 C.3     1  UNL1        0.2320
     37 C          60.1742   93.2520    1.6685 C.ar    1  UNL1        0.0211
     38 C          60.2861   94.7264    1.9208 C.ar    1  UNL1       -0.0010
     39 C          61.6072   95.4173    1.7561 C.ar    1  UNL1       -0.0043
     40 C          62.8165   94.6339    1.3390 C.ar    1  UNL1       -0.0166
     41 C          62.7046   93.1595    1.0868 C.ar    1  UNL1       -0.0043
     42 C          61.3835   92.4686    1.2515 C.ar    1  UNL1       -0.0010
     43 C          64.1376   95.3249    1.1743 C.3     1  UNL1        0.0986
     44 C          65.1644   94.7659    0.2345 C.3     1  UNL1        0.3229
     45 F          65.4081   95.4272   -1.0896 F       1  UNL1       -0.1981
     46 F          65.9474   93.5456    0.6188 F       1  UNL1       -0.1981
@<TRIPOS>BOND
     1    10    11    1
     2    11    21    1
     3    21    22    1
     4    22    23   ar
     5    23    24   ar
     6    24    25   ar
     7    25    26   ar
     8    11    13    1
     9    13    14   ar
    10    14    15   ar
    11    15    16   ar
    12    16    17    1
    13    16    18   ar
    14    18    19   ar
    15    19    20    1
    16    11     7    1
    17     7     8    1
    18     7     9    1
    19     7     1    1
    20     1     2   ar
    21     2     3   ar
    22     3     4   ar
    23     4    27    1
    24    27    28    3
    25    28    29    1
    26    29    30   ar
    27    30    31   ar
    28    31    32   ar
    29    32    35    1
    30    35    36    1
    31    36    37    1
    32    37    38   ar
    33    38    39   ar
    34    39    40   ar
    35    40    43    1
    36    43    44    1
    37    44    45    1
    38    44    46    1
    39    40    41   ar
    40    41    42   ar
    41    32    33   ar
    42    33    34   ar
    43     4     5   ar
    44     5     6   ar
    45    26    22   ar
    46    19    13   ar
    47     6     1   ar
    48    34    29   ar
    49    42    37   ar
    50    10    12    1
@<TRIPOS>MOLECULE
*****
 46 50 0 0 0
SMALL
GASTEIGER

@<TRIPOS>ATOM
      1 C          60.0852   93.0313    2.0490 C.ar    1  UNL1        0.1218
      2 C          61.4139   92.4745    2.4669 C.ar    1  UNL1        0.0208
      3 C          61.5190   91.6339    3.7049 C.ar    1  UNL1        0.0112
      4 C          60.2954   91.3501    4.5248 C.ar    1  UNL1        0.0611
      5 C          58.9667   91.9069    4.1068 C.ar    1  UNL1        0.1068
      6 N          58.8616   92.7475    2.8689 N.ar    1  UNL1       -0.2421
      7 C          59.9801   93.8719    0.8111 C.3     1  UNL1        0.3254
      8 F          59.5605   95.0466    1.6443 F       1  UNL1       -0.1949
      9 F          60.4127   92.5289    0.3022 F       1  UNL1       -0.1949
     10 O          59.7699   95.5531   -1.6646 O.3     1  UNL1       -0.3755
     11 C          59.8750   94.7125   -0.4268 C.3     1  UNL1        0.1932
     12 H          58.9530   96.0751   -1.6325 H       1  UNL1        0.2110
     13 C          61.3564   94.9455   -0.3944 C.ar    1  UNL1        0.0368
     14 C          61.9340   95.9727    0.5337 C.ar    1  UNL1        0.0028
     15 C          63.4155   96.2057    0.5661 C.ar    1  UNL1        0.0295
     16 C          64.3193   95.4114   -0.3296 C.ar    1  UNL1        0.1424
     17 F          65.8008   95.6443   -0.2972 F       1  UNL1       -0.2041
     18 C          63.7418   94.3842   -1.2576 C.ar    1  UNL1        0.0590
     19 C          62.2603   94.1512   -1.2900 C.ar    1  UNL1        0.1408
     20 F          61.6828   93.1240   -2.2180 F       1  UNL1       -0.2043
     21 C          58.3935   94.4796   -0.4592 C.3     1  UNL1        0.1679
     22 N          57.7994   93.5728   -1.4958 N.ar    1  UNL1       -0.2078
     23 C          56.3569   93.1738   -1.5959 C.ar    1  UNL1        0.2216
     24 N          56.2094   92.2601   -2.7763 N.ar    1  UNL1       -0.1048
     25 N          57.5608   92.0944   -3.4058 N.ar    1  UNL1       -0.0226
     26 N          58.5435   92.9057   -2.6144 N.ar    1  UNL1       -0.0428
     27 C          60.4004   90.5096    5.7627 C.1     1  UNL1       -0.0582
     28 C          60.5055   89.6690    7.0005 C.1     1  UNL1       -0.0597
     29 C          60.6105   88.8284    8.2385 C.ar    1  UNL1        0.0422
     30 C          60.9467   89.4680    9.5530 C.ar    1  UNL1        0.0114
     31 C          61.0517   88.6274   10.7909 C.ar    1  UNL1        0.0375
     32 C          60.8206   87.1473   10.7142 C.ar    1  UNL1        0.1391
     33 C          60.4844   86.5078    9.3998 C.ar    1  UNL1        0.0375
     34 C          60.3794   87.3483    8.1619 C.ar    1  UNL1        0.0114
     35 O          60.9256   86.3067   11.9522 O.3     1  UNL1       -0.4706
     36 C          62.2423   85.7004   12.3375 C.3     1  UNL1        0.2320
     37 C          62.6367   84.3578   11.7969 C.ar    1  UNL1        0.0211
     38 C          62.3291   83.1149   12.5781 C.ar    1  UNL1       -0.0010
     39 C          62.7234   81.7724   12.0375 C.ar    1  UNL1       -0.0043
     40 C          63.4254   81.6730   10.7156 C.ar    1  UNL1       -0.0166
     41 C          63.7330   82.9159    9.9344 C.ar    1  UNL1       -0.0043
     42 C          63.3387   84.2584   10.4750 C.ar    1  UNL1       -0.0010
     43 C          63.8197   80.3305   10.1750 C.3     1  UNL1        0.0986
     44 C          62.7661   79.3124    9.8536 C.3     1  UNL1        0.3229
     45 F          62.7027   78.0288   10.6270 F       1  UNL1       -0.1981
     46 F          61.7758   79.5780    8.7587 F       1  UNL1       -0.1981
@<TRIPOS>BOND
     1    10    11    1
     2    11    21    1
     3    21    22    1
     4    22    23   ar
     5    23    24   ar
     6    24    25   ar
     7    25    26   ar
     8    11    13    1
     9    13    14   ar
    10    14    15   ar
    11    15    16   ar
    12    16    17    1
    13    16    18   ar
    14    18    19   ar
    15    19    20    1
    16    11     7    1
    17     7     8    1
    18     7     9    1
    19     7     1    1
    20     1     2   ar
    21     2     3   ar
    22     3     4   ar
    23     4    27    1
    24    27    28    3
    25    28    29    1
    26    29    30   ar
    27    30    31   ar
    28    31    32   ar
    29    32    35    1
    30    35    36    1
    31    36    37    1
    32    37    38   ar
    33    38    39   ar
    34    39    40   ar
    35    40    43    1
    36    43    44    1
    37    44    45    1
    38    44    46    1
    39    40    41   ar
    40    41    42   ar
    41    32    33   ar
    42    33    34   ar
    43     4     5   ar
    44     5     6   ar
    45    26    22   ar
    46    19    13   ar
    47     6     1   ar
    48    34    29   ar
    49    42    37   ar
    50    10    12    1
@<TRIPOS>MOLECULE
*****
 46 50 0 0 0
SMALL
GASTEIGER

@<TRIPOS>ATOM
      1 C          60.1766   93.4031    1.5733 C.ar    1  UNL1        0.1218
      2 C          61.4881   92.8378    2.0317 C.ar    1  UNL1        0.0208
      3 C          61.5525   92.0101    3.2810 C.ar    1  UNL1        0.0112
      4 C          60.3052   91.7478    4.0720 C.ar    1  UNL1        0.0611
      5 C          58.9936   92.3132    3.6135 C.ar    1  UNL1        0.1068
      6 N          58.9293   93.1408    2.3642 N.ar    1  UNL1       -0.2421
      7 C          60.1122   94.2308    0.3239 C.3     1  UNL1        0.3254
      8 F          59.6491   95.4092    1.1284 F       1  UNL1       -0.1949
      9 F          60.5771   92.8873   -0.1543 F       1  UNL1       -0.1949
     10 O          59.9835   95.8862   -2.1747 O.3     1  UNL1       -0.3755
     11 C          60.0478   95.0585   -0.9254 C.3     1  UNL1        0.1932
     12 H          60.8771   96.1746   -2.4179 H       1  UNL1        0.2110
     13 C          58.9737   94.1611   -1.4646 C.ar    1  UNL1        0.0368
     14 C          57.6042   94.1791   -0.8528 C.ar    1  UNL1        0.0028
     15 C          56.5300   93.2817   -1.3920 C.ar    1  UNL1        0.0295
     16 C          56.8253   92.3663   -2.5430 C.ar    1  UNL1        0.1424
     17 F          55.7511   91.4689   -3.0822 F       1  UNL1       -0.2041
     18 C          58.1947   92.3482   -3.1548 C.ar    1  UNL1        0.0590
     19 C          59.2689   93.2457   -2.6156 C.ar    1  UNL1        0.1408
     20 F          60.6384   93.2276   -3.2274 F       1  UNL1       -0.2043
     21 C          61.1221   95.9560   -0.3862 C.3     1  UNL1        0.1679
     22 N          62.5628   95.6649   -0.6854 N.ar    1  UNL1       -0.2078
     23 C          63.6742   95.5897    0.3191 C.ar    1  UNL1        0.2216
     24 N          64.9434   95.2762   -0.4164 N.ar    1  UNL1       -0.1048
     25 N          64.6163   95.1576   -1.8755 N.ar    1  UNL1       -0.0226
     26 N          63.1450   95.3978   -2.0418 N.ar    1  UNL1       -0.0428
     27 C          60.3695   90.9202    5.3213 C.1     1  UNL1       -0.0582
     28 C          60.4338   90.0925    6.5706 C.1     1  UNL1       -0.0597
     29 C          60.4981   89.2648    7.8200 C.ar    1  UNL1        0.0422
     30 C          61.0965   89.8388    9.0699 C.ar    1  UNL1        0.0114
     31 C          61.1608   89.0111   10.3192 C.ar    1  UNL1        0.0375
     32 C          60.6265   87.6095   10.3185 C.ar    1  UNL1        0.1391
     33 C          60.0281   87.0355    9.0686 C.ar    1  UNL1        0.0375
     34 C          59.9638   87.8632    7.8193 C.ar    1  UNL1        0.0114
     35 O          60.6908   86.7818   11.5679 O.3     1  UNL1       -0.4706
     36 C          62.0201   86.4321   12.1684 C.3     1  UNL1        0.2320
     37 C          62.3687   84.9976   12.4348 C.ar    1  UNL1        0.0211
     38 C          62.6963   84.0810   11.2936 C.ar    1  UNL1       -0.0010
     39 C          63.0449   82.6466   11.5601 C.ar    1  UNL1       -0.0043
     40 C          63.0659   82.1289   12.9678 C.ar    1  UNL1       -0.0166
     41 C          62.7383   83.0456   14.1090 C.ar    1  UNL1       -0.0043
     42 C          62.3897   84.4799   13.8425 C.ar    1  UNL1       -0.0010
     43 C          63.4145   80.6945   13.2343 C.3     1  UNL1        0.0986
     44 C          62.4537   79.6064   12.8562 C.3     1  UNL1        0.3229
     45 F          62.6571   78.8343   11.5864 F       1  UNL1       -0.1981
     46 F          61.2896   79.2906   13.7478 F       1  UNL1       -0.1981
@<TRIPOS>BOND
     1    10    11    1
     2    11    21    1
     3    21    22    1
     4    22    23   ar
     5    23    24   ar
     6    24    25   ar
     7    25    26   ar
     8    11    13    1
     9    13    14   ar
    10    14    15   ar
    11    15    16   ar
    12    16    17    1
    13    16    18   ar
    14    18    19   ar
    15    19    20    1
    16    11     7    1
    17     7     8    1
    18     7     9    1
    19     7     1    1
    20     1     2   ar
    21     2     3   ar
    22     3     4   ar
    23     4    27    1
    24    27    28    3
    25    28    29    1
    26    29    30   ar
    27    30    31   ar
    28    31    32   ar
    29    32    35    1
    30    35    36    1
    31    36    37    1
    32    37    38   ar
    33    38    39   ar
    34    39    40   ar
    35    40    43    1
    36    43    44    1
    37    44    45    1
    38    44    46    1
    39    40    41   ar
    40    41    42   ar
    41    32    33   ar
    42    33    34   ar
    43     4     5   ar
    44     5     6   ar
    45    26    22   ar
    46    19    13   ar
    47     6     1   ar
    48    34    29   ar
    49    42    37   ar
    50    10    12    1
@<TRIPOS>MOLECULE
*****
 46 50 0 0 0
SMALL
GASTEIGER

@<TRIPOS>ATOM
      1 C          62.4811   85.7754   11.7728 C.ar    1  UNL1        0.1218
      2 C          62.6103   87.2669   11.8659 C.ar    1  UNL1        0.0208
      3 C          62.0894   88.1354   10.7593 C.ar    1  UNL1        0.0112
      4 C          61.4393   87.5124    9.5597 C.ar    1  UNL1        0.0611
      5 C          61.3102   86.0208    9.4666 C.ar    1  UNL1        0.1068
      6 N          61.8310   85.1524   10.5731 N.ar    1  UNL1       -0.2421
      7 C          63.0020   84.9069   12.8794 C.3     1  UNL1        0.3254
      8 F          61.7596   85.1764   13.6757 F       1  UNL1       -0.1949
      9 F          64.0812   84.8556   11.8390 F       1  UNL1       -0.1949
     10 O          64.0436   83.1700   15.0925 O.3     1  UNL1       -0.3755
     11 C          63.5228   84.0384   13.9859 C.3     1  UNL1        0.1932
     12 H          64.7045   82.5552   14.7372 H       1  UNL1        0.2110
     13 C          63.4683   85.2051   14.9272 C.ar    1  UNL1        0.0368
     14 C          64.2078   86.4684   14.5995 C.ar    1  UNL1        0.0028
     15 C          64.1533   87.6350   15.5407 C.ar    1  UNL1        0.0295
     16 C          63.3593   87.5384   16.8097 C.ar    1  UNL1        0.1424
     17 F          63.3048   88.7050   17.7509 F       1  UNL1       -0.2041
     18 C          62.6198   86.2752   17.1374 C.ar    1  UNL1        0.0590
     19 C          62.6743   85.1085   16.1961 C.ar    1  UNL1        0.1408
     20 F          61.9348   83.8453   16.5238 F       1  UNL1       -0.2043
     21 C          63.5773   82.8717   13.0446 C.3     1  UNL1        0.1679
     22 N          62.7160   81.6686   13.2908 N.ar    1  UNL1       -0.2078
     23 C          62.9118   80.3069   12.6929 C.ar    1  UNL1        0.2216
     24 N          61.8245   79.4126   13.2107 N.ar    1  UNL1       -0.1048
     25 N          60.9569   80.2216   14.1287 N.ar    1  UNL1       -0.0226
     26 N          61.5079   81.6159   14.1782 N.ar    1  UNL1       -0.0428
     27 C          60.9185   88.3808    8.4531 C.1     1  UNL1       -0.0582
     28 C          60.3976   89.2492    7.3466 C.1     1  UNL1       -0.0597
     29 C          59.8767   90.1177    6.2400 C.ar    1  UNL1        0.0422
     30 C          60.8297   90.7397    5.2629 C.ar    1  UNL1        0.0114
     31 C          60.3087   91.6081    4.1564 C.ar    1  UNL1        0.0375
     32 C          58.8348   91.8546    4.0270 C.ar    1  UNL1        0.1391
     33 C          57.8818   91.2326    5.0041 C.ar    1  UNL1        0.0375
     34 C          58.4027   90.3641    6.1106 C.ar    1  UNL1        0.0114
     35 O          58.3138   92.7231    2.9204 O.3     1  UNL1       -0.4706
     36 C          58.9934   92.7222    1.5832 C.3     1  UNL1        0.2320
     37 C          60.2578   93.5044    1.3839 C.ar    1  UNL1        0.0211
     38 C          60.3396   94.9286    1.8475 C.ar    1  UNL1       -0.0010
     39 C          61.6040   95.7106    1.6483 C.ar    1  UNL1       -0.0043
     40 C          62.7865   95.0685    0.9854 C.ar    1  UNL1       -0.0166
     41 C          62.7046   93.6443    0.5218 C.ar    1  UNL1       -0.0043
     42 C          61.4403   92.8623    0.7211 C.ar    1  UNL1       -0.0010
     43 C          64.0509   95.8506    0.7861 C.3     1  UNL1        0.0986
     44 C          65.1691   95.2733   -0.0301 C.3     1  UNL1        0.3229
     45 F          65.8948   94.0516    0.4501 F       1  UNL1       -0.1981
     46 F          65.5616   95.9178   -1.3265 F       1  UNL1       -0.1981
@<TRIPOS>BOND
     1    10    11    1
     2    11    21    1
     3    21    22    1
     4    22    23   ar
     5    23    24   ar
     6    24    25   ar
     7    25    26   ar
     8    11    13    1
     9    13    14   ar
    10    14    15   ar
    11    15    16   ar
    12    16    17    1
    13    16    18   ar
    14    18    19   ar
    15    19    20    1
    16    11     7    1
    17     7     8    1
    18     7     9    1
    19     7     1    1
    20     1     2   ar
    21     2     3   ar
    22     3     4   ar
    23     4    27    1
    24    27    28    3
    25    28    29    1
    26    29    30   ar
    27    30    31   ar
    28    31    32   ar
    29    32    35    1
    30    35    36    1
    31    36    37    1
    32    37    38   ar
    33    38    39   ar
    34    39    40   ar
    35    40    43    1
    36    43    44    1
    37    44    45    1
    38    44    46    1
    39    40    41   ar
    40    41    42   ar
    41    32    33   ar
    42    33    34   ar
    43     4     5   ar
    44     5     6   ar
    45    26    22   ar
    46    19    13   ar
    47     6     1   ar
    48    34    29   ar
    49    42    37   ar
    50    10    12    1
@<TRIPOS>MOLECULE
*****
 46 50 0 0 0
SMALL
GASTEIGER

@<TRIPOS>ATOM
      1 C          62.4883   85.8506   11.6323 C.ar    1  UNL1        0.1218
      2 C          62.5069   87.3427   11.7849 C.ar    1  UNL1        0.0208
      3 C          62.0115   88.2168   10.6711 C.ar    1  UNL1        0.0112
      4 C          61.4975   87.5988    9.4047 C.ar    1  UNL1        0.0611
      5 C          61.4789   86.1067    9.2520 C.ar    1  UNL1        0.1068
      6 N          61.9743   85.2326   10.3658 N.ar    1  UNL1       -0.2421
      7 C          62.9838   84.9765   12.7461 C.3     1  UNL1        0.3254
      8 F          64.2005   84.6359   11.9376 F       1  UNL1       -0.1949
      9 F          61.6834   85.5185   13.2610 F       1  UNL1       -0.1949
     10 O          63.9746   83.2283   14.9735 O.3     1  UNL1       -0.3755
     11 C          63.4792   84.1024   13.8598 C.3     1  UNL1        0.1932
     12 H          64.6226   82.5963   14.6248 H       1  UNL1        0.2110
     13 C          63.4476   85.2752   14.7944 C.ar    1  UNL1        0.0368
     14 C          64.2005   86.5269   14.4528 C.ar    1  UNL1        0.0028
     15 C          64.1689   87.6997   15.3874 C.ar    1  UNL1        0.0295
     16 C          63.3844   87.6210   16.6635 C.ar    1  UNL1        0.1424
     17 F          63.3528   88.7938   17.5980 F       1  UNL1       -0.2041
     18 C          62.6316   86.3694   17.0050 C.ar    1  UNL1        0.0590
     19 C          62.6632   85.1964   16.0705 C.ar    1  UNL1        0.1408
     20 F          61.9103   83.9449   16.4120 F       1  UNL1       -0.2043
     21 C          63.5108   82.9295   12.9253 C.3     1  UNL1        0.1679
     22 N          62.6963   81.7069   13.2283 N.ar    1  UNL1       -0.2078
     23 C          62.9130   80.3383   12.6537 C.ar    1  UNL1        0.2216
     24 N          61.8727   79.4238   13.2294 N.ar    1  UNL1       -0.1048
     25 N          61.0131   80.2272   14.1598 N.ar    1  UNL1       -0.0226
     26 N          61.5221   81.6382   14.1591 N.ar    1  UNL1       -0.0428
     27 C          61.0021   88.4729    8.2909 C.1     1  UNL1       -0.0582
     28 C          60.5067   89.3469    7.1771 C.1     1  UNL1       -0.0597
     29 C          60.0113   90.2210    6.0632 C.ar    1  UNL1        0.0422
     30 C          60.9839   90.8221    5.0923 C.ar    1  UNL1        0.0114
     31 C          60.4885   91.6961    3.9785 C.ar    1  UNL1        0.0375
     32 C          59.0205   91.9691    3.8356 C.ar    1  UNL1        0.1391
     33 C          58.0479   91.3680    4.8066 C.ar    1  UNL1        0.0375
     34 C          58.5433   90.4940    5.9203 C.ar    1  UNL1        0.0114
     35 O          58.5251   92.8431    2.7218 O.3     1  UNL1       -0.4706
     36 C          59.4404   93.2078    1.5908 C.3     1  UNL1        0.2320
     37 C          58.9859   93.0334    0.1719 C.ar    1  UNL1        0.0211
     38 C          57.5443   92.7429   -0.1235 C.ar    1  UNL1       -0.0010
     39 C          57.0899   92.5685   -1.5423 C.ar    1  UNL1       -0.0043
     40 C          58.0771   92.6846   -2.6657 C.ar    1  UNL1       -0.0166
     41 C          59.5187   92.9751   -2.3702 C.ar    1  UNL1       -0.0043
     42 C          59.9731   93.1495   -0.9514 C.ar    1  UNL1       -0.0010
     43 C          57.6226   92.5102   -4.0845 C.3     1  UNL1        0.0986
     44 C          56.4406   91.6393   -4.3918 C.3     1  UNL1        0.3229
     45 F          55.6550   91.8580   -5.6507 F       1  UNL1       -0.1981
     46 F          56.0442   90.5498   -3.4401 F       1  UNL1       -0.1981
@<TRIPOS>BOND
     1    10    11    1
     2    11    21    1
     3    21    22    1
     4    22    23   ar
     5    23    24   ar
     6    24    25   ar
     7    25    26   ar
     8    11    13    1
     9    13    14   ar
    10    14    15   ar
    11    15    16   ar
    12    16    17    1
    13    16    18   ar
    14    18    19   ar
    15    19    20    1
    16    11     7    1
    17     7     8    1
    18     7     9    1
    19     7     1    1
    20     1     2   ar
    21     2     3   ar
    22     3     4   ar
    23     4    27    1
    24    27    28    3
    25    28    29    1
    26    29    30   ar
    27    30    31   ar
    28    31    32   ar
    29    32    35    1
    30    35    36    1
    31    36    37    1
    32    37    38   ar
    33    38    39   ar
    34    39    40   ar
    35    40    43    1
    36    43    44    1
    37    44    45    1
    38    44    46    1
    39    40    41   ar
    40    41    42   ar
    41    32    33   ar
    42    33    34   ar
    43     4     5   ar
    44     5     6   ar
    45    26    22   ar
    46    19    13   ar
    47     6     1   ar
    48    34    29   ar
    49    42    37   ar
    50    10    12    1
@<TRIPOS>MOLECULE
*****
 46 50 0 0 0
SMALL
GASTEIGER

@<TRIPOS>ATOM
      1 C          59.9855   93.0766    2.0381 C.ar    1  UNL1        0.1218
      2 C          61.3259   92.5365    2.4400 C.ar    1  UNL1        0.0208
      3 C          61.4504   91.6672    3.6560 C.ar    1  UNL1        0.0112
      4 C          60.2343   91.3379    4.4702 C.ar    1  UNL1        0.0611
      5 C          58.8938   91.8780    4.0683 C.ar    1  UNL1        0.1068
      6 N          58.7695   92.7474    2.8522 N.ar    1  UNL1       -0.2421
      7 C          59.8610   93.9460    0.8220 C.3     1  UNL1        0.3254
      8 F          59.9790   92.7352   -0.0556 F       1  UNL1       -0.1949
      9 F          59.7767   94.9103    1.9678 F       1  UNL1       -0.1949
     10 O          59.6122   95.6846   -1.6101 O.3     1  UNL1       -0.3755
     11 C          59.7366   94.8153   -0.3940 C.3     1  UNL1        0.1932
     12 H          58.8109   96.2266   -1.5394 H       1  UNL1        0.2110
     13 C          61.2239   95.0093   -0.4075 C.ar    1  UNL1        0.0368
     14 C          61.8655   95.9572    0.5620 C.ar    1  UNL1        0.0028
     15 C          63.3528   96.1512    0.5485 C.ar    1  UNL1        0.0295
     16 C          64.1986   95.3973   -0.4345 C.ar    1  UNL1        0.1424
     17 F          65.6859   95.5913   -0.4480 F       1  UNL1       -0.2041
     18 C          63.5571   94.4495   -1.4040 C.ar    1  UNL1        0.0590
     19 C          62.0697   94.2555   -1.3906 C.ar    1  UNL1        0.1408
     20 F          61.4282   93.3076   -2.3601 F       1  UNL1       -0.2043
     21 C          58.2492   94.6213   -0.3806 C.3     1  UNL1        0.1679
     22 N          57.5843   93.8443   -1.4778 N.ar    1  UNL1       -0.2078
     23 C          56.1251   93.5063   -1.5595 C.ar    1  UNL1        0.2216
     24 N          55.9007   92.7220   -2.8182 N.ar    1  UNL1       -0.1048
     25 N          57.2212   92.5751   -3.5145 N.ar    1  UNL1       -0.0226
     26 N          58.2617   93.2688   -2.6861 N.ar    1  UNL1       -0.0428
     27 C          60.3587   90.4686    5.6862 C.1     1  UNL1       -0.0582
     28 C          60.4831   89.5993    6.9022 C.1     1  UNL1       -0.0597
     29 C          60.6075   88.7299    8.1183 C.ar    1  UNL1        0.0422
     30 C          60.8795   87.2626    7.9666 C.ar    1  UNL1        0.0114
     31 C          61.0039   86.3933    9.1827 C.ar    1  UNL1        0.0375
     32 C          60.8564   86.9913   10.5504 C.ar    1  UNL1        0.1391
     33 C          60.5844   88.4585   10.7020 C.ar    1  UNL1        0.0375
     34 C          60.4600   89.3278    9.4860 C.ar    1  UNL1        0.0114
     35 O          60.9808   86.1219   11.7664 O.3     1  UNL1       -0.4706
     36 C          62.3234   85.9047   12.3989 C.3     1  UNL1        0.2320
     37 C          63.0652   87.0615   13.0004 C.ar    1  UNL1        0.0211
     38 C          63.8268   86.8805   14.2798 C.ar    1  UNL1       -0.0010
     39 C          64.5685   88.0373   14.8812 C.ar    1  UNL1       -0.0043
     40 C          64.5485   89.3751   14.2031 C.ar    1  UNL1       -0.0166
     41 C          63.7869   89.5562   12.9236 C.ar    1  UNL1       -0.0043
     42 C          63.0452   88.3994   12.3223 C.ar    1  UNL1       -0.0010
     43 C          65.2903   90.5320   14.8045 C.3     1  UNL1        0.0986
     44 C          66.0159   91.5001   13.9180 C.3     1  UNL1        0.3229
     45 F          65.2433   92.4929   13.1010 F       1  UNL1       -0.1981
     46 F          67.5141   91.4755   13.8483 F       1  UNL1       -0.1981
@<TRIPOS>BOND
     1    10    11    1
     2    11    21    1
     3    21    22    1
     4    22    23   ar
     5    23    24   ar
     6    24    25   ar
     7    25    26   ar
     8    11    13    1
     9    13    14   ar
    10    14    15   ar
    11    15    16   ar
    12    16    17    1
    13    16    18   ar
    14    18    19   ar
    15    19    20    1
    16    11     7    1
    17     7     8    1
    18     7     9    1
    19     7     1    1
    20     1     2   ar
    21     2     3   ar
    22     3     4   ar
    23     4    27    1
    24    27    28    3
    25    28    29    1
    26    29    30   ar
    27    30    31   ar
    28    31    32   ar
    29    32    35    1
    30    35    36    1
    31    36    37    1
    32    37    38   ar
    33    38    39   ar
    34    39    40   ar
    35    40    43    1
    36    43    44    1
    37    44    45    1
    38    44    46    1
    39    40    41   ar
    40    41    42   ar
    41    32    33   ar
    42    33    34   ar
    43     4     5   ar
    44     5     6   ar
    45    26    22   ar
    46    19    13   ar
    47     6     1   ar
    48    34    29   ar
    49    42    37   ar
    50    10    12    1
