@<TRIPOS>MOLECULE
*****
 36 40 0 0 0
SMALL
GASTEIGER

@<TRIPOS>ATOM
      1 N          63.5259   88.8906   14.1015 N.3     1  UNL1       -0.2641
      2 C          63.3924   89.6194   12.7972 C.3     1  UNL1        0.0981
      3 C          64.1931   90.8630   12.5477 C.3     1  UNL1        0.0224
      4 C          64.0597   91.5917   11.2434 C.3     1  UNL1        0.0065
      5 C          63.1256   91.0769   10.1887 C.3     1  UNL1        0.0277
      6 C          62.3249   89.8333   10.4383 C.ar    1  UNL1       -0.0073
      7 C          61.3908   89.3184    9.3836 C.ar    1  UNL1       -0.0015
      8 C          60.5902   88.0748    9.6332 C.ar    1  UNL1        0.0203
      9 C          60.7236   87.3460   10.9375 C.ar    1  UNL1        0.0985
     10 N          61.6576   87.8608   11.9921 N.ar    1  UNL1       -0.2471
     11 C          62.4584   89.1045   11.7426 C.ar    1  UNL1        0.0695
     12 C          62.7666   89.3631   15.3057 C.3     1  UNL1        0.0989
     13 C          64.2461   91.4202   15.8798 C.2     1  UNL1       -0.0122
     14 C          63.4412   90.2348   16.3233 C.2     1  UNL1       -0.0120
     15 C          64.9206   92.2918   16.8972 C.3     1  UNL1        0.0951
     16 N          66.2119   92.9768   16.5602 N.3     1  UNL1       -0.2938
     17 H          66.7038   93.1276   17.4409 H       1  UNL1        0.1236
     18 C          67.1865   92.3225   15.6264 C.3     1  UNL1        0.0689
     19 C          67.1591   92.6508   14.1630 C.3     1  UNL1        0.0207
     20 C          66.4012   93.8508   13.6776 C.3     1  UNL1        0.0335
     21 C          66.3739   94.1791   12.2143 C.3     1  UNL1        0.1422
     22 O          67.1044   93.3074   11.2363 O.3     1  UNL1       -0.3538
     23 C          67.8622   92.1074   11.7216 C.3     1  UNL1        0.1422
     24 C          67.8896   91.7791   13.1850 C.3     1  UNL1        0.0335
     25 C          64.4185   87.6893   14.2015 C.3     1  UNL1        0.0888
     26 C          63.8212   86.3159   14.2856 C.3     1  UNL1        0.0748
     27 C          63.7650   85.4464   13.0647 C.3     1  UNL1        0.0432
     28 C          63.1677   84.0730   13.1488 C.ar    1  UNL1       -0.0234
     29 C          63.1115   83.2036   11.9278 C.ar    1  UNL1       -0.0045
     30 C          62.5142   81.8302   12.0119 C.ar    1  UNL1       -0.0003
     31 C          61.9731   81.3264   13.3171 C.ar    1  UNL1       -0.0003
     32 C          62.0293   82.1958   14.5380 C.ar    1  UNL1       -0.0032
     33 C          62.6266   83.5692   14.4539 C.ar    1  UNL1       -0.0103
     34 C          62.6828   84.4387   15.6749 C.3     1  UNL1        0.0953
     35 N          63.2801   85.8121   15.5907 N.3     1  UNL1       -0.2934
     36 H          64.0501   85.8397   16.2591 H       1  UNL1        0.1236
@<TRIPOS>BOND
     1    13    14    2
     2    14    12    1
     3    12     1    1
     4     1    25    1
     5    26    25    1
     6    26    27    1
     7    27    28    1
     8    28    29   ar
     9    29    30   ar
    10    30    31   ar
    11    31    32   ar
    12    32    33   ar
    13    33    34    1
    14    34    35    1
    15     2     1    1
    16     2     3    1
    17     3     4    1
    18     4     5    1
    19     5     6    1
    20     6     7   ar
    21     7     8   ar
    22     8     9   ar
    23     9    10   ar
    24    10    11   ar
    25    13    15    1
    26    15    16    1
    27    16    18    1
    28    18    19    1
    29    19    20    1
    30    20    21    1
    31    21    22    1
    32    22    23    1
    33    23    24    1
    34    35    26    1
    35    11     2    1
    36    24    19    1
    37    33    28   ar
    38    11     6   ar
    39    35    36    1
    40    16    17    1
@<TRIPOS>MOLECULE
*****
 36 40 0 0 0
SMALL
GASTEIGER

@<TRIPOS>ATOM
      1 N          64.2156   90.2189   14.9336 N.3     1  UNL1       -0.2641
      2 C          65.1503   91.3758   14.7385 C.3     1  UNL1        0.0981
      3 C          65.9585   91.8899   15.8928 C.3     1  UNL1        0.0224
      4 C          66.8932   93.0468   15.6977 C.3     1  UNL1        0.0065
      5 C          67.0196   93.6896   14.3484 C.3     1  UNL1        0.0277
      6 C          66.2113   93.1755   13.1941 C.ar    1  UNL1       -0.0073
      7 C          66.3377   93.8183   11.8446 C.ar    1  UNL1       -0.0015
      8 C          65.5294   93.3042   10.6904 C.ar    1  UNL1        0.0203
      9 C          64.5948   92.1473   10.8855 C.ar    1  UNL1        0.0985
     10 N          64.4684   91.5045   12.2348 N.ar    1  UNL1       -0.2471
     11 C          65.2767   92.0186   13.3892 C.ar    1  UNL1        0.0695
     12 C          63.2441   90.2241   16.0764 C.3     1  UNL1        0.0989
     13 C          63.1572   87.9312   17.2952 C.2     1  UNL1       -0.0122
     14 C          62.5018   88.9710   16.4354 C.2     1  UNL1       -0.0120
     15 C          62.4148   86.6783   17.6542 C.3     1  UNL1        0.0951
     16 N          62.3497   85.5397   16.6797 N.3     1  UNL1       -0.2938
     17 H          61.5327   85.7023   16.0911 H       1  UNL1        0.1236
     18 C          63.5025   85.2755   15.7570 C.3     1  UNL1        0.0689
     19 C          63.3710   84.2546   14.6658 C.3     1  UNL1        0.0207
     20 C          64.1758   84.3938   13.4077 C.3     1  UNL1        0.0335
     21 C          64.0443   83.3730   12.3166 C.3     1  UNL1        0.1422
     22 O          63.1080   82.2130   12.4835 O.3     1  UNL1       -0.3538
     23 C          62.3032   82.0739   13.7416 C.3     1  UNL1        0.1422
     24 C          62.4347   83.0947   14.8328 C.3     1  UNL1        0.0335
     25 C          64.2525   89.0569   13.9859 C.3     1  UNL1        0.0888
     26 C          63.1757   88.8963   12.9539 C.3     1  UNL1        0.0748
     27 C          63.1719   87.6958   12.0546 C.3     1  UNL1        0.0432
     28 C          62.0951   87.5352   11.0226 C.ar    1  UNL1       -0.0234
     29 C          62.0912   86.3347   10.1234 C.ar    1  UNL1       -0.0045
     30 C          61.0145   86.1741    9.0914 C.ar    1  UNL1       -0.0003
     31 C          59.9417   87.2140    8.9588 C.ar    1  UNL1       -0.0003
     32 C          59.9456   88.4146    9.8580 C.ar    1  UNL1       -0.0032
     33 C          61.0223   88.5751   10.8900 C.ar    1  UNL1       -0.0103
     34 C          61.0262   89.7757   11.7893 C.3     1  UNL1        0.0953
     35 N          62.1029   89.9362   12.8212 N.3     1  UNL1       -0.2934
     36 H          61.6367   89.9954   13.7265 H       1  UNL1        0.1236
@<TRIPOS>BOND
     1    13    14    2
     2    14    12    1
     3    12     1    1
     4     1    25    1
     5    26    25    1
     6    26    27    1
     7    27    28    1
     8    28    29   ar
     9    29    30   ar
    10    30    31   ar
    11    31    32   ar
    12    32    33   ar
    13    33    34    1
    14    34    35    1
    15     2     1    1
    16     2     3    1
    17     3     4    1
    18     4     5    1
    19     5     6    1
    20     6     7   ar
    21     7     8   ar
    22     8     9   ar
    23     9    10   ar
    24    10    11   ar
    25    13    15    1
    26    15    16    1
    27    16    18    1
    28    18    19    1
    29    19    20    1
    30    20    21    1
    31    21    22    1
    32    22    23    1
    33    23    24    1
    34    35    26    1
    35    11     2    1
    36    24    19    1
    37    33    28   ar
    38    11     6   ar
    39    35    36    1
    40    16    17    1
@<TRIPOS>MOLECULE
*****
 36 40 0 0 0
SMALL
GASTEIGER

@<TRIPOS>ATOM
      1 N          62.9875   90.0714   13.1288 N.3     1  UNL1       -0.2641
      2 C          63.9120   91.0644   12.4892 C.3     1  UNL1        0.0981
      3 C          63.8569   91.2946   11.0080 C.3     1  UNL1        0.0224
      4 C          64.7814   92.2877   10.3684 C.3     1  UNL1        0.0065
      5 C          65.7610   93.0506   11.2100 C.3     1  UNL1        0.0277
      6 C          65.8162   92.8204   12.6912 C.ar    1  UNL1       -0.0073
      7 C          66.7958   93.5833   13.5328 C.ar    1  UNL1       -0.0015
      8 C          66.8509   93.3531   15.0140 C.ar    1  UNL1        0.0203
      9 C          65.9264   92.3601   15.6536 C.ar    1  UNL1        0.0985
     10 N          64.9468   91.5972   14.8120 N.ar    1  UNL1       -0.2471
     11 C          64.8916   91.8273   13.3308 C.ar    1  UNL1        0.0695
     12 C          63.4615   89.2423   14.2854 C.3     1  UNL1        0.0989
     13 C          64.2599   86.9081   15.1004 C.2     1  UNL1       -0.0122
     14 C          64.2065   87.9643   14.0367 C.2     1  UNL1       -0.0120
     15 C          65.0049   85.6302   14.8517 C.3     1  UNL1        0.0951
     16 N          64.4454   84.3280   15.3430 N.3     1  UNL1       -0.2938
     17 H          64.3685   84.4045   16.3572 H       1  UNL1        0.1236
     18 C          63.1157   83.8467   14.8429 C.3     1  UNL1        0.0689
     19 C          63.0502   82.8773   13.7001 C.3     1  UNL1        0.0207
     20 C          62.6691   81.4482   13.9498 C.3     1  UNL1        0.0335
     21 C          62.6037   80.4789   12.8070 C.3     1  UNL1        0.1422
     22 O          62.9194   80.9386   11.4145 O.3     1  UNL1       -0.3538
     23 C          63.3005   82.3677   11.1648 C.3     1  UNL1        0.1422
     24 C          63.3659   83.3371   12.3076 C.3     1  UNL1        0.0335
     25 C          61.5891   89.9074   12.6117 C.3     1  UNL1        0.0888
     26 C          61.3332   89.0706   11.3933 C.3     1  UNL1        0.0748
     27 C          62.2183   87.8985   11.0890 C.3     1  UNL1        0.0432
     28 C          61.9625   87.0618    9.8706 C.ar    1  UNL1       -0.0234
     29 C          62.8476   85.8897    9.5663 C.ar    1  UNL1       -0.0045
     30 C          62.5917   85.0530    8.3479 C.ar    1  UNL1       -0.0003
     31 C          61.4507   85.3884    7.4339 C.ar    1  UNL1       -0.0003
     32 C          60.5655   86.5605    7.7382 C.ar    1  UNL1       -0.0032
     33 C          60.8214   87.3972    8.9565 C.ar    1  UNL1       -0.0103
     34 C          59.9362   88.5694    9.2609 C.3     1  UNL1        0.0953
     35 N          60.1921   89.4061   10.4793 N.3     1  UNL1       -0.2934
     36 H          59.3431   89.3720   11.0435 H       1  UNL1        0.1236
@<TRIPOS>BOND
     1    13    14    2
     2    14    12    1
     3    12     1    1
     4     1    25    1
     5    26    25    1
     6    26    27    1
     7    27    28    1
     8    28    29   ar
     9    29    30   ar
    10    30    31   ar
    11    31    32   ar
    12    32    33   ar
    13    33    34    1
    14    34    35    1
    15     2     1    1
    16     2     3    1
    17     3     4    1
    18     4     5    1
    19     5     6    1
    20     6     7   ar
    21     7     8   ar
    22     8     9   ar
    23     9    10   ar
    24    10    11   ar
    25    13    15    1
    26    15    16    1
    27    16    18    1
    28    18    19    1
    29    19    20    1
    30    20    21    1
    31    21    22    1
    32    22    23    1
    33    23    24    1
    34    35    26    1
    35    11     2    1
    36    24    19    1
    37    33    28   ar
    38    11     6   ar
    39    35    36    1
    40    16    17    1
@<TRIPOS>MOLECULE
*****
 36 40 0 0 0
SMALL
GASTEIGER

@<TRIPOS>ATOM
      1 N          60.6689   87.3037    9.9831 N.3     1  UNL1       -0.2641
      2 C          61.6675   86.2230    9.6919 C.3     1  UNL1        0.0981
      3 C          62.0704   85.9360    8.2758 C.3     1  UNL1        0.0224
      4 C          63.0690   84.8553    7.9846 C.3     1  UNL1        0.0065
      5 C          63.6647   84.0616    9.1093 C.3     1  UNL1        0.0277
      6 C          63.2618   84.3486   10.5254 C.ar    1  UNL1       -0.0073
      7 C          63.8575   83.5549   11.6503 C.ar    1  UNL1       -0.0015
      8 C          63.4545   83.8419   13.0663 C.ar    1  UNL1        0.0203
      9 C          62.4559   84.9226   13.3576 C.ar    1  UNL1        0.0985
     10 N          61.8602   85.7163   12.2328 N.ar    1  UNL1       -0.2471
     11 C          62.2632   85.4293   10.8167 C.ar    1  UNL1        0.0695
     12 C          59.4963   87.5073    9.0701 C.3     1  UNL1        0.0989
     13 C          59.1411   89.4161    7.3437 C.2     1  UNL1       -0.0122
     14 C          59.7049   88.0715    7.6959 C.2     1  UNL1       -0.0120
     15 C          59.3496   89.9802    5.9696 C.3     1  UNL1        0.0951
     16 N          59.1324   91.4430    5.7184 N.3     1  UNL1       -0.2938
     17 H          59.9274   91.9334    6.1281 H       1  UNL1        0.1236
     18 C          58.9882   91.9495    4.3140 C.3     1  UNL1        0.0689
     19 C          60.2021   92.3721    3.5407 C.3     1  UNL1        0.0207
     20 C          61.5026   91.6497    3.7327 C.3     1  UNL1        0.0335
     21 C          62.7165   92.0723    2.9595 C.3     1  UNL1        0.1422
     22 O          62.6299   93.2172    1.9942 O.3     1  UNL1       -0.3538
     23 C          61.3294   93.9396    1.8023 C.3     1  UNL1        0.1422
     24 C          60.1155   93.5170    2.5755 C.3     1  UNL1        0.0335
     25 C          60.8428   88.1808   11.1875 C.3     1  UNL1        0.0888
     26 C          61.8759   89.2683   11.1804 C.3     1  UNL1        0.0748
     27 C          62.7568   89.4738   12.3769 C.3     1  UNL1        0.0432
     28 C          63.7899   90.5614   12.3698 C.ar    1  UNL1       -0.0234
     29 C          64.6708   90.7668   13.5664 C.ar    1  UNL1       -0.0045
     30 C          65.7038   91.8543   13.5592 C.ar    1  UNL1       -0.0003
     31 C          65.8559   92.7364   12.3556 C.ar    1  UNL1       -0.0003
     32 C          64.9750   92.5309   11.1590 C.ar    1  UNL1       -0.0032
     33 C          63.9420   91.4434   11.1662 C.ar    1  UNL1       -0.0103
     34 C          63.0610   91.2379    9.9696 C.3     1  UNL1        0.0953
     35 N          62.0280   90.1504    9.9767 N.3     1  UNL1       -0.2934
     36 H          62.2390   89.5387    9.1882 H       1  UNL1        0.1236
@<TRIPOS>BOND
     1    13    14    2
     2    14    12    1
     3    12     1    1
     4     1    25    1
     5    26    25    1
     6    26    27    1
     7    27    28    1
     8    28    29   ar
     9    29    30   ar
    10    30    31   ar
    11    31    32   ar
    12    32    33   ar
    13    33    34    1
    14    34    35    1
    15     2     1    1
    16     2     3    1
    17     3     4    1
    18     4     5    1
    19     5     6    1
    20     6     7   ar
    21     7     8   ar
    22     8     9   ar
    23     9    10   ar
    24    10    11   ar
    25    13    15    1
    26    15    16    1
    27    16    18    1
    28    18    19    1
    29    19    20    1
    30    20    21    1
    31    21    22    1
    32    22    23    1
    33    23    24    1
    34    35    26    1
    35    11     2    1
    36    24    19    1
    37    33    28   ar
    38    11     6   ar
    39    35    36    1
    40    16    17    1
@<TRIPOS>MOLECULE
*****
 36 40 0 0 0
SMALL
GASTEIGER

@<TRIPOS>ATOM
      1 N          62.4009   87.2200   11.7114 N.3     1  UNL1       -0.2641
      2 C          63.1835   86.4070   12.6997 C.3     1  UNL1        0.0981
      3 C          63.8744   87.0828   13.8468 C.3     1  UNL1        0.0224
      4 C          64.6570   86.2698   14.8350 C.3     1  UNL1        0.0065
      5 C          64.7487   84.7811   14.6761 C.3     1  UNL1        0.0277
      6 C          64.0577   84.1053   13.5290 C.ar    1  UNL1       -0.0073
      7 C          64.1494   82.6166   13.3701 C.ar    1  UNL1       -0.0015
      8 C          63.4585   81.9408   12.2230 C.ar    1  UNL1        0.0203
      9 C          62.6759   82.7538   11.2347 C.ar    1  UNL1        0.0985
     10 N          62.5842   84.2425   11.3936 N.ar    1  UNL1       -0.2471
     11 C          63.2751   84.9183   12.5408 C.ar    1  UNL1        0.0695
     12 C          62.0721   86.6492   10.3638 C.3     1  UNL1        0.0989
     13 C          60.4244   86.4139    8.3689 C.2     1  UNL1       -0.0122
     14 C          60.7093   86.8583    9.7729 C.2     1  UNL1       -0.0120
     15 C          59.0617   86.6230    7.7780 C.3     1  UNL1        0.0951
     16 N          58.6124   88.0030    7.3986 N.3     1  UNL1       -0.2938
     17 H          58.1242   88.3866    8.2079 H       1  UNL1        0.1236
     18 C          59.6202   89.0297    6.9741 C.3     1  UNL1        0.0689
     19 C          59.2261   90.1177    6.0196 C.3     1  UNL1        0.0207
     20 C          57.7768   90.4427    5.8098 C.3     1  UNL1        0.0335
     21 C          57.3828   91.5306    4.8553 C.3     1  UNL1        0.1422
     22 O          58.4380   92.2936    4.1107 O.3     1  UNL1       -0.3538
     23 C          59.8872   91.9686    4.3205 C.3     1  UNL1        0.1422
     24 C          60.2812   90.8806    5.2749 C.3     1  UNL1        0.0335
     25 C          61.9470   88.6037   12.0708 C.3     1  UNL1        0.0888
     26 C          62.8063   89.7861   11.7337 C.3     1  UNL1        0.0748
     27 C          63.7238   90.3660   12.7691 C.3     1  UNL1        0.0432
     28 C          64.5831   91.5484   12.4320 C.ar    1  UNL1       -0.0234
     29 C          65.5006   92.1282   13.4674 C.ar    1  UNL1       -0.0045
     30 C          66.3598   93.3106   13.1303 C.ar    1  UNL1       -0.0003
     31 C          66.3017   93.9131   11.7578 C.ar    1  UNL1       -0.0003
     32 C          65.3842   93.3332   10.7225 C.ar    1  UNL1       -0.0032
     33 C          64.5249   92.1509   11.0596 C.ar    1  UNL1       -0.0103
     34 C          63.6074   91.5710   10.0242 C.3     1  UNL1        0.0953
     35 N          62.7482   90.3886   10.3613 N.3     1  UNL1       -0.2934
     36 H          62.9947   89.6485    9.7041 H       1  UNL1        0.1236
@<TRIPOS>BOND
     1    13    14    2
     2    14    12    1
     3    12     1    1
     4     1    25    1
     5    26    25    1
     6    26    27    1
     7    27    28    1
     8    28    29   ar
     9    29    30   ar
    10    30    31   ar
    11    31    32   ar
    12    32    33   ar
    13    33    34    1
    14    34    35    1
    15     2     1    1
    16     2     3    1
    17     3     4    1
    18     4     5    1
    19     5     6    1
    20     6     7   ar
    21     7     8   ar
    22     8     9   ar
    23     9    10   ar
    24    10    11   ar
    25    13    15    1
    26    15    16    1
    27    16    18    1
    28    18    19    1
    29    19    20    1
    30    20    21    1
    31    21    22    1
    32    22    23    1
    33    23    24    1
    34    35    26    1
    35    11     2    1
    36    24    19    1
    37    33    28   ar
    38    11     6   ar
    39    35    36    1
    40    16    17    1
@<TRIPOS>MOLECULE
*****
 36 40 0 0 0
SMALL
GASTEIGER

@<TRIPOS>ATOM
      1 N          61.6776   87.8300   10.9257 N.3     1  UNL1       -0.2641
      2 C          60.8607   87.4052    9.7415 C.3     1  UNL1        0.0981
      3 C          59.4836   87.9647    9.5408 C.3     1  UNL1        0.0224
      4 C          58.6667   87.5398    8.3566 C.3     1  UNL1        0.0065
      5 C          59.2270   86.5555    7.3732 C.3     1  UNL1        0.0277
      6 C          60.6042   85.9960    7.5740 C.ar    1  UNL1       -0.0073
      7 C          61.1646   85.0117    6.5905 C.ar    1  UNL1       -0.0015
      8 C          62.5418   84.4522    6.7913 C.ar    1  UNL1        0.0203
      9 C          63.3586   84.8771    7.9755 C.ar    1  UNL1        0.0985
     10 N          62.7983   85.8614    8.9589 N.ar    1  UNL1       -0.2471
     11 C          61.4211   86.4209    8.7581 C.ar    1  UNL1        0.0695
     12 C          62.6985   86.8970   11.5063 C.3     1  UNL1        0.0989
     13 C          63.1135   84.4431   12.2522 C.2     1  UNL1       -0.0122
     14 C          62.2572   85.6746   12.2555 C.2     1  UNL1       -0.0120
     15 C          62.6722   83.2208   13.0014 C.3     1  UNL1        0.0951
     16 N          63.0853   83.0272   14.4304 N.3     1  UNL1       -0.2938
     17 H          63.4218   82.0677   14.5122 H       1  UNL1        0.1236
     18 C          64.1393   83.9084   15.0324 C.3     1  UNL1        0.0689
     19 C          63.7602   85.2330   15.6257 C.3     1  UNL1        0.0207
     20 C          64.3361   86.4989   15.0638 C.3     1  UNL1        0.0335
     21 C          63.9571   87.8234   15.6571 C.3     1  UNL1        0.1422
     22 O          63.0021   87.8819   16.8124 O.3     1  UNL1       -0.3538
     23 C          62.4262   86.6161   17.3743 C.3     1  UNL1        0.1422
     24 C          62.8053   85.2916   16.7810 C.3     1  UNL1        0.0335
     25 C          61.4736   89.1879   11.5293 C.3     1  UNL1        0.0888
     26 C          62.6416   90.1117   11.7099 C.3     1  UNL1        0.0748
     27 C          63.3606   90.1633   13.0252 C.3     1  UNL1        0.0432
     28 C          64.5286   91.0871   13.2058 C.ar    1  UNL1       -0.0234
     29 C          65.2477   91.1387   14.5211 C.ar    1  UNL1       -0.0045
     30 C          66.4156   92.0624   14.7016 C.ar    1  UNL1       -0.0003
     31 C          66.8645   92.9345   13.5667 C.ar    1  UNL1       -0.0003
     32 C          66.1455   92.8829   12.2513 C.ar    1  UNL1       -0.0032
     33 C          64.9775   91.9592   12.0709 C.ar    1  UNL1       -0.0103
     34 C          64.2584   91.9075   10.7554 C.3     1  UNL1        0.0953
     35 N          63.0904   90.9838   10.5750 N.3     1  UNL1       -0.2934
     36 H          63.3235   90.3623    9.8004 H       1  UNL1        0.1236
@<TRIPOS>BOND
     1    13    14    2
     2    14    12    1
     3    12     1    1
     4     1    25    1
     5    26    25    1
     6    26    27    1
     7    27    28    1
     8    28    29   ar
     9    29    30   ar
    10    30    31   ar
    11    31    32   ar
    12    32    33   ar
    13    33    34    1
    14    34    35    1
    15     2     1    1
    16     2     3    1
    17     3     4    1
    18     4     5    1
    19     5     6    1
    20     6     7   ar
    21     7     8   ar
    22     8     9   ar
    23     9    10   ar
    24    10    11   ar
    25    13    15    1
    26    15    16    1
    27    16    18    1
    28    18    19    1
    29    19    20    1
    30    20    21    1
    31    21    22    1
    32    22    23    1
    33    23    24    1
    34    35    26    1
    35    11     2    1
    36    24    19    1
    37    33    28   ar
    38    11     6   ar
    39    35    36    1
    40    16    17    1
@<TRIPOS>MOLECULE
*****
 36 40 0 0 0
SMALL
GASTEIGER

@<TRIPOS>ATOM
      1 N          63.7720   89.9281   13.4641 N.3     1  UNL1       -0.2641
      2 C          64.5129   91.0892   12.8700 C.3     1  UNL1        0.0981
      3 C          64.3356   91.4292   11.4199 C.3     1  UNL1        0.0224
      4 C          65.0765   92.5903   10.8257 C.3     1  UNL1        0.0065
      5 C          65.9947   93.4113   11.6817 C.3     1  UNL1        0.0277
      6 C          66.1720   93.0713   13.1318 C.ar    1  UNL1       -0.0073
      7 C          67.0902   93.8924   13.9879 C.ar    1  UNL1       -0.0015
      8 C          67.2675   93.5523   15.4380 C.ar    1  UNL1        0.0203
      9 C          66.5266   92.3913   16.0322 C.ar    1  UNL1        0.0985
     10 N          65.6084   91.5702   15.1762 N.ar    1  UNL1       -0.2471
     11 C          65.4311   91.9102   13.7260 C.ar    1  UNL1        0.0695
     12 C          62.3642   89.6380   13.0353 C.3     1  UNL1        0.0989
     13 C          61.0783   90.0675   10.8190 C.2     1  UNL1       -0.0122
     14 C          62.0747   89.2725   11.6095 C.2     1  UNL1       -0.0120
     15 C          60.7888   89.7019    9.3933 C.3     1  UNL1        0.0951
     16 N          59.7205   88.6969    9.0788 N.3     1  UNL1       -0.2938
     17 H          59.5961   88.7065    8.0664 H       1  UNL1        0.1236
     18 C          59.8988   87.2625    9.4795 C.3     1  UNL1        0.0689
     19 C          60.8531   86.3857    8.7241 C.3     1  UNL1        0.0207
     20 C          62.2288   86.1332    9.2658 C.3     1  UNL1        0.0335
     21 C          63.1831   85.2565    8.5103 C.3     1  UNL1        0.1422
     22 O          62.7615   84.6323    7.2131 O.3     1  UNL1       -0.3538
     23 C          61.3858   84.8848    6.6714 C.3     1  UNL1        0.1422
     24 C          60.4316   85.7615    7.4269 C.3     1  UNL1        0.0335
     25 C          64.4389   89.0571   14.4871 C.3     1  UNL1        0.0888
     26 C          64.0103   87.6289   14.6502 C.3     1  UNL1        0.0748
     27 C          63.8923   86.7393   13.4483 C.3     1  UNL1        0.0432
     28 C          63.4637   85.3111   13.6114 C.ar    1  UNL1       -0.0234
     29 C          63.3458   84.4215   12.4095 C.ar    1  UNL1       -0.0045
     30 C          62.9172   82.9933   12.5726 C.ar    1  UNL1       -0.0003
     31 C          62.6066   82.4548   13.9377 C.ar    1  UNL1       -0.0003
     32 C          62.7245   83.3443   15.1397 C.ar    1  UNL1       -0.0032
     33 C          63.1531   84.7725   14.9765 C.ar    1  UNL1       -0.0103
     34 C          63.2711   85.6622   16.1785 C.3     1  UNL1        0.0953
     35 N          63.6997   87.0903   16.0153 N.3     1  UNL1       -0.2934
     36 H          64.5417   87.2112   16.5781 H       1  UNL1        0.1236
@<TRIPOS>BOND
     1    13    14    2
     2    14    12    1
     3    12     1    1
     4     1    25    1
     5    26    25    1
     6    26    27    1
     7    27    28    1
     8    28    29   ar
     9    29    30   ar
    10    30    31   ar
    11    31    32   ar
    12    32    33   ar
    13    33    34    1
    14    34    35    1
    15     2     1    1
    16     2     3    1
    17     3     4    1
    18     4     5    1
    19     5     6    1
    20     6     7   ar
    21     7     8   ar
    22     8     9   ar
    23     9    10   ar
    24    10    11   ar
    25    13    15    1
    26    15    16    1
    27    16    18    1
    28    18    19    1
    29    19    20    1
    30    20    21    1
    31    21    22    1
    32    22    23    1
    33    23    24    1
    34    35    26    1
    35    11     2    1
    36    24    19    1
    37    33    28   ar
    38    11     6   ar
    39    35    36    1
    40    16    17    1
@<TRIPOS>MOLECULE
*****
 36 40 0 0 0
SMALL
GASTEIGER

@<TRIPOS>ATOM
      1 N          63.5668   88.9671   14.3851 N.3     1  UNL1       -0.2641
      2 C          63.3736   87.9598   15.4796 C.3     1  UNL1        0.0981
      3 C          62.9967   88.4137   16.8587 C.3     1  UNL1        0.0224
      4 C          62.8034   87.4064   17.9532 C.3     1  UNL1        0.0065
      5 C          62.9871   85.9452   17.6687 C.3     1  UNL1        0.0277
      6 C          63.3640   85.4912   16.2897 C.ar    1  UNL1       -0.0073
      7 C          63.5477   84.0299   16.0051 C.ar    1  UNL1       -0.0015
      8 C          63.9246   83.5760   14.6260 C.ar    1  UNL1        0.0203
      9 C          64.1178   84.5833   13.5315 C.ar    1  UNL1        0.0985
     10 N          63.9342   86.0445   13.8160 N.ar    1  UNL1       -0.2471
     11 C          63.5572   86.4985   15.1951 C.ar    1  UNL1        0.0695
     12 C          63.4229   90.4309   14.6790 C.3     1  UNL1        0.0989
     13 C          65.7430   91.3470   13.9525 C.2     1  UNL1       -0.0122
     14 C          64.6388   91.2618   14.9641 C.2     1  UNL1       -0.0120
     15 C          66.9589   92.1779   14.2376 C.3     1  UNL1        0.0951
     16 N          67.1621   93.4802   13.5216 N.3     1  UNL1       -0.2938
     17 H          68.1444   93.5162   13.2490 H       1  UNL1        0.1236
     18 C          66.3602   93.7939   12.2934 C.3     1  UNL1        0.0689
     19 C          66.9674   93.6105   10.9340 C.3     1  UNL1        0.0207
     20 C          66.8298   94.6878    9.8995 C.3     1  UNL1        0.0335
     21 C          67.4370   94.5043    8.5403 C.3     1  UNL1        0.1422
     22 O          68.1819   93.2435    8.2156 O.3     1  UNL1       -0.3538
     23 C          68.3195   92.1661    9.2501 C.3     1  UNL1        0.1422
     24 C          67.7123   92.3496   10.6093 C.3     1  UNL1        0.0335
     25 C          63.9040   88.5106   12.9967 C.3     1  UNL1        0.0888
     26 C          62.9051   88.6748   11.8898 C.3     1  UNL1        0.0748
     27 C          62.4216   87.4743   11.1315 C.3     1  UNL1        0.0432
     28 C          61.4227   87.6386   10.0246 C.ar    1  UNL1       -0.0234
     29 C          60.9392   86.4380    9.2664 C.ar    1  UNL1       -0.0045
     30 C          59.9403   86.6023    8.1596 C.ar    1  UNL1       -0.0003
     31 C          59.4248   87.9672    7.8110 C.ar    1  UNL1       -0.0003
     32 C          59.9083   89.1677    8.5692 C.ar    1  UNL1       -0.0032
     33 C          60.9072   89.0034    9.6760 C.ar    1  UNL1       -0.0103
     34 C          61.3907   90.2040   10.4343 C.3     1  UNL1        0.0953
     35 N          62.3896   90.0397   11.5411 N.3     1  UNL1       -0.2934
     36 H          61.9583   90.4160   12.3853 H       1  UNL1        0.1236
@<TRIPOS>BOND
     1    13    14    2
     2    14    12    1
     3    12     1    1
     4     1    25    1
     5    26    25    1
     6    26    27    1
     7    27    28    1
     8    28    29   ar
     9    29    30   ar
    10    30    31   ar
    11    31    32   ar
    12    32    33   ar
    13    33    34    1
    14    34    35    1
    15     2     1    1
    16     2     3    1
    17     3     4    1
    18     4     5    1
    19     5     6    1
    20     6     7   ar
    21     7     8   ar
    22     8     9   ar
    23     9    10   ar
    24    10    11   ar
    25    13    15    1
    26    15    16    1
    27    16    18    1
    28    18    19    1
    29    19    20    1
    30    20    21    1
    31    21    22    1
    32    22    23    1
    33    23    24    1
    34    35    26    1
    35    11     2    1
    36    24    19    1
    37    33    28   ar
    38    11     6   ar
    39    35    36    1
    40    16    17    1
@<TRIPOS>MOLECULE
*****
 36 40 0 0 0
SMALL
GASTEIGER

@<TRIPOS>ATOM
      1 N          61.7223   87.7588   11.0960 N.3     1  UNL1       -0.2641
      2 C          60.9031   87.3883    9.8953 C.3     1  UNL1        0.0981
      3 C          59.5478   87.9989    9.6947 C.3     1  UNL1        0.0224
      4 C          58.7285   87.6284    8.4940 C.3     1  UNL1        0.0065
      5 C          59.2645   86.6473    7.4941 C.3     1  UNL1        0.0277
      6 C          60.6198   86.0366    7.6947 C.ar    1  UNL1       -0.0073
      7 C          61.1559   85.0554    6.6947 C.ar    1  UNL1       -0.0015
      8 C          62.5111   84.4448    6.8953 C.ar    1  UNL1        0.0203
      9 C          63.3304   84.8153    8.0960 C.ar    1  UNL1        0.0985
     10 N          62.7944   85.7964    9.0960 N.ar    1  UNL1       -0.2471
     11 C          61.4391   86.4071    8.8953 C.ar    1  UNL1        0.0695
     12 C          62.8563   86.8785   11.5308 C.3     1  UNL1        0.0989
     13 C          63.9861   86.4497   13.8307 C.2     1  UNL1       -0.0122
     14 C          62.8355   86.2453   12.8905 C.2     1  UNL1       -0.0120
     15 C          63.9653   85.8165   15.1903 C.3     1  UNL1        0.0951
     16 N          63.4262   84.4273   15.3625 N.3     1  UNL1       -0.2938
     17 H          62.5355   84.3935   14.8667 H       1  UNL1        0.1236
     18 C          64.2273   83.2486   14.8944 C.3     1  UNL1        0.0689
     19 C          63.8415   82.5324   13.6342 C.3     1  UNL1        0.0207
     20 C          64.2548   83.0835   12.3017 C.3     1  UNL1        0.0335
     21 C          63.8690   82.3672   11.0416 C.3     1  UNL1        0.1422
     22 O          63.0698   81.0999   11.1138 O.3     1  UNL1       -0.3538
     23 C          62.6565   80.5489   12.4462 C.3     1  UNL1        0.1422
     24 C          63.0423   81.2651   13.7064 C.3     1  UNL1        0.0335
     25 C          61.4076   89.0095   11.8618 C.3     1  UNL1        0.0888
     26 C          62.5200   89.8850   12.3582 C.3     1  UNL1        0.0748
     27 C          63.2894   90.7389   11.3945 C.3     1  UNL1        0.0432
     28 C          64.4017   91.6143   11.8909 C.ar    1  UNL1       -0.0234
     29 C          65.1712   92.4683   10.9272 C.ar    1  UNL1       -0.0045
     30 C          66.2835   93.3436   11.4237 C.ar    1  UNL1       -0.0003
     31 C          66.6263   93.3651   12.8838 C.ar    1  UNL1       -0.0003
     32 C          65.8569   92.5111   13.8475 C.ar    1  UNL1       -0.0032
     33 C          64.7446   91.6358   13.3511 C.ar    1  UNL1       -0.0103
     34 C          63.9751   90.7818   14.3148 C.3     1  UNL1        0.0953
     35 N          62.8628   89.9064   13.8183 N.3     1  UNL1       -0.2934
     36 H          62.0190   90.1926   14.3148 H       1  UNL1        0.1236
@<TRIPOS>BOND
     1    13    14    2
     2    14    12    1
     3    12     1    1
     4     1    25    1
     5    26    25    1
     6    26    27    1
     7    27    28    1
     8    28    29   ar
     9    29    30   ar
    10    30    31   ar
    11    31    32   ar
    12    32    33   ar
    13    33    34    1
    14    34    35    1
    15     2     1    1
    16     2     3    1
    17     3     4    1
    18     4     5    1
    19     5     6    1
    20     6     7   ar
    21     7     8   ar
    22     8     9   ar
    23     9    10   ar
    24    10    11   ar
    25    13    15    1
    26    15    16    1
    27    16    18    1
    28    18    19    1
    29    19    20    1
    30    20    21    1
    31    21    22    1
    32    22    23    1
    33    23    24    1
    34    35    26    1
    35    11     2    1
    36    24    19    1
    37    33    28   ar
    38    11     6   ar
    39    35    36    1
    40    16    17    1
