@<TRIPOS>MOLECULE
*****
 56 58 0 0 0
SMALL
GASTEIGER

@<TRIPOS>ATOM
      1 C          62.5751   83.3016   12.1031 C.3     1  UNL1        0.1953
      2 O          62.4864   84.0530   10.8079 O.3     1  UNL1       -0.4497
      3 C          62.4681   85.2922    9.9630 C.2     1  UNL1        0.3188
      4 O          62.3020   84.7476    8.5752 O.2     1  UNL1       -0.2500
      5 C          62.5237   86.7739    9.7356 C.3     1  UNL1        0.1263
      6 C          62.3807   86.5488    8.4122 C.3     1  UNL1        0.0142
      7 C          62.6422   88.2045   10.1708 C.3     1  UNL1        0.1306
      8 C          62.8001   89.3006   11.1826 C.3     1  UNL1        0.0575
      9 C          62.7818   90.5399   10.3375 C.3     1  UNL1        0.0051
     10 C          62.9662   89.8453   12.5702 C.3     1  UNL1        0.1444
     11 C          63.1076   89.7306   14.0592 C.3     1  UNL1        0.1137
     12 C          63.1391   91.1627   13.6144 C.3     1  UNL1        0.0318
     13 O          63.2720   90.6623   15.2231 O.3     1  UNL1       -0.3844
     14 C          63.1963   88.9791   15.3544 C.3     1  UNL1        0.0366
     15 C          63.2147   87.7400   16.1993 C.3     1  UNL1        0.0601
     16 C          63.3808   88.2846   17.5870 C.3     1  UNL1        0.0078
     17 C          63.1591   86.2583   16.4267 C.2     1  UNL1        0.1523
     18 O          63.3005   86.1435   17.9156 O.2     1  UNL1       -0.2960
     19 C          63.0406   84.8277   15.9915 C.3     1  UNL1        0.0869
     20 C          63.1292   84.0763   17.2867 C.3     1  UNL1        0.0104
     21 C          62.8826   83.7315   14.9797 C.3     1  UNL1        0.1451
     22 O          62.9010   82.4923   15.8247 O.3     1  UNL1       -0.3815
     23 C          62.7165   83.1869   13.5920 C.3     1  UNL1        0.1497
     24 C          62.7594   82.0869   14.6109 C.3     1  UNL1        0.0356
     25 O          62.5817   81.8386   12.9488 O.3     1  UNL1       -0.3808
     26 H          63.2887   91.5782   14.9043 H       1  UNL1        0.2103
     27 H          63.0063   82.7383   16.7571 H       1  UNL1        0.2105
     28 H          62.6131   81.1501   13.6314 H       1  UNL1        0.2105
     29 C          63.2773   81.3664   10.5182 C.3     1  UNL1        0.0039
     30 C          62.4566   81.8710   11.6679 C.3     1  UNL1        0.0462
     31 O          62.5535   88.9559    8.8756 O.3     1  UNL1       -0.3323
     32 C          61.2535   89.0135    8.1295 C.3     1  UNL1        0.2375
     33 C          61.0142   90.0993    7.1226 C.3     1  UNL1        0.0910
     34 C          59.7142   90.1569    6.3764 C.3     1  UNL1        0.1246
     35 C          58.6548   90.6285    5.4250 C.3     1  UNL1        0.0324
     36 C          58.6535   89.1288    6.6373 C.3     1  UNL1        0.1623
     37 O          57.3536   89.1865    5.8911 O.3     1  UNL1       -0.3796
     38 C          58.8929   88.0431    7.6442 C.3     1  UNL1        0.1468
     39 C          57.8322   87.0150    7.9050 C.3     1  UNL1        0.0348
     40 O          60.1928   87.9854    8.3903 O.3     1  UNL1       -0.3304
     41 H          57.3625   89.9430    5.2840 H       1  UNL1        0.2105
     42 O          60.4070   91.3488    5.7852 O.3     1  UNL1       -0.3532
     43 C          59.8594   91.9975    4.5486 C.3     1  UNL1        0.1740
     44 O          63.0218   91.3268   12.3429 O.3     1  UNL1       -0.3287
     45 C          64.2965   92.0768   12.5935 C.3     1  UNL1        0.2643
     46 O          64.8847   92.1163   13.9728 O.3     1  UNL1       -0.3311
     47 C          66.1594   92.8663   14.2233 C.3     1  UNL1        0.1194
     48 C          66.7476   92.9057   15.6027 C.3     1  UNL1        0.0322
     49 C          66.8458   93.5767   13.0946 C.3     1  UNL1        0.0482
     50 C          66.2576   93.5372   11.7153 C.3     1  UNL1        0.0921
     51 C          64.9830   92.7873   11.4647 C.3     1  UNL1        0.1815
     52 O          64.3947   92.7478   10.0854 O.3     1  UNL1       -0.3783
     53 H          63.5776   92.2252   10.0973 H       1  UNL1        0.2106
     54 N          66.9441   94.2478   10.5866 N.3     1  UNL1       -0.2692
     55 C          66.7707   95.7279   10.4162 C.3     1  UNL1        0.0897
     56 C          67.8040   93.4781    9.6284 C.3     1  UNL1        0.0897
@<TRIPOS>BOND
     1    29    30    1
     2     1    30    1
     3     1     2    1
     4     2     3    1
     5     3     4    2
     6     3     5    1
     7     5     6    1
     8     5     7    1
     9     7    31    1
    10    32    31    1
    11    32    33    1
    12    33    34    1
    13    34    35    1
    14    34    42    1
    15    42    43    1
    16    34    36    1
    17    36    37    1
    18    36    38    1
    19    38    39    1
    20    38    40    1
    21     7     8    1
    22     8     9    1
    23     8    10    1
    24    10    44    1
    25    45    44    1
    26    45    46    1
    27    46    47    1
    28    47    48    1
    29    47    49    1
    30    49    50    1
    31    50    54    1
    32    54    55    1
    33    54    56    1
    34    50    51    1
    35    51    52    1
    36    10    11    1
    37    11    12    1
    38    11    13    1
    39    11    14    1
    40    14    15    1
    41    15    16    1
    42    15    17    1
    43    17    18    2
    44    17    19    1
    45    19    20    1
    46    19    21    1
    47    21    22    1
    48    21    23    1
    49    23    24    1
    50    23    25    1
    51    23     1    1
    52    40    32    1
    53    51    45    1
    54    37    41    1
    55    52    53    1
    56    13    26    1
    57    22    27    1
    58    25    28    1
@<TRIPOS>MOLECULE
*****
 56 58 0 0 0
SMALL
GASTEIGER

@<TRIPOS>ATOM
      1 C          62.5551   83.4278   11.9703 C.3     1  UNL1        0.1953
      2 O          62.5198   84.2066   10.6888 O.3     1  UNL1       -0.4497
      3 C          62.5463   85.4629    9.8697 C.2     1  UNL1        0.3188
      4 O          62.4192   84.9490    8.4661 O.2     1  UNL1       -0.2500
      5 C          62.6295   86.9479    9.6751 C.3     1  UNL1        0.1263
      6 C          62.5277   86.7519    8.3433 C.3     1  UNL1        0.0142
      7 C          62.7527   88.3675   10.1437 C.3     1  UNL1        0.1306
      8 C          62.8916   89.4405   11.1828 C.3     1  UNL1        0.0575
      9 C          62.9182   90.6968   10.3636 C.3     1  UNL1        0.0051
     10 C          63.0187   89.9544   12.5862 C.3     1  UNL1        0.1444
     11 C          63.1088   89.8074   14.0763 C.3     1  UNL1        0.1137
     12 C          63.1744   91.2477   13.6627 C.3     1  UNL1        0.0318
     13 O          63.2468   90.7127   15.2642 O.3     1  UNL1       -0.3844
     14 C          63.1441   89.0285   15.3578 C.3     1  UNL1        0.0366
     15 C          63.1175   87.7723   16.1769 C.3     1  UNL1        0.0601
     16 C          63.2446   88.2861   17.5804 C.3     1  UNL1        0.0078
     17 C          63.0344   86.2872   16.3714 C.2     1  UNL1        0.1523
     18 O          63.1245   86.1402   17.8615 O.2     1  UNL1       -0.2960
     19 C          62.9112   84.8676   15.9028 C.3     1  UNL1        0.0869
     20 C          62.9464   84.0888   17.1843 C.3     1  UNL1        0.0104
     21 C          62.7723   83.7946   14.8638 C.3     1  UNL1        0.1451
     22 O          62.7457   82.5383   15.6829 O.3     1  UNL1       -0.3815
     23 C          62.6452   83.2808   13.4603 C.3     1  UNL1        0.1497
     24 C          62.6392   82.1598   14.4570 C.3     1  UNL1        0.0356
     25 O          62.5137   81.9479   12.7851 O.3     1  UNL1       -0.3808
     26 H          63.2865   91.6347   14.9652 H       1  UNL1        0.2103
     27 H          62.8232   82.7637   16.6232 H       1  UNL1        0.2105
     28 H          62.5130   81.2453   13.4538 H       1  UNL1        0.2105
     29 C          63.4016   81.4638   10.4952 C.3     1  UNL1        0.0039
     30 C          62.4318   82.0082   11.5016 C.3     1  UNL1        0.0462
     31 O          62.7174   89.1463    8.8622 O.3     1  UNL1       -0.3323
     32 C          61.4311   89.2830    8.1029 C.3     1  UNL1        0.2375
     33 C          60.3124   88.3127    8.3420 C.3     1  UNL1        0.0910
     34 C          59.0260   88.4493    7.5826 C.3     1  UNL1        0.1246
     35 C          57.6294   88.1675    7.1134 C.3     1  UNL1        0.0324
     36 C          58.8584   89.5561    6.5841 C.3     1  UNL1        0.1623
     37 O          57.5720   89.6926    5.8248 O.3     1  UNL1       -0.3796
     38 C          59.9771   90.5263    6.3451 C.3     1  UNL1        0.1468
     39 C          59.8094   91.6331    5.3466 C.3     1  UNL1        0.0348
     40 O          61.2634   90.3898    7.1044 O.3     1  UNL1       -0.3304
     41 H          56.9600   88.9909    6.0968 H       1  UNL1        0.2105
     42 O          58.7086   87.2446    8.4181 O.3     1  UNL1       -0.3532
     43 C          59.2545   85.9011    8.0348 C.3     1  UNL1        0.1740
     44 O          63.1018   91.4393   12.3917 O.3     1  UNL1       -0.3287
     45 C          64.4012   92.1538   12.6180 C.3     1  UNL1        0.2643
     46 O          65.0178   92.1740   13.9853 O.3     1  UNL1       -0.3311
     47 C          66.3171   92.8885   14.2115 C.3     1  UNL1        0.1194
     48 C          66.9338   92.9086   15.5789 C.3     1  UNL1        0.0322
     49 C          66.9998   93.5828   13.0707 C.3     1  UNL1        0.0482
     50 C          66.3832   93.5627   11.7034 C.3     1  UNL1        0.0921
     51 C          65.0839   92.8482   11.4770 C.3     1  UNL1        0.1815
     52 O          64.4673   92.8281   10.1098 O.3     1  UNL1       -0.3783
     53 H          63.6367   92.3278   10.1371 H       1  UNL1        0.2106
     54 N          67.0660   94.2571   10.5625 N.3     1  UNL1       -0.2692
     55 C          66.8615   95.7276   10.3491 C.3     1  UNL1        0.0897
     56 C          67.9533   93.4809    9.6350 C.3     1  UNL1        0.0897
@<TRIPOS>BOND
     1    29    30    1
     2     1    30    1
     3     1     2    1
     4     2     3    1
     5     3     4    2
     6     3     5    1
     7     5     6    1
     8     5     7    1
     9     7    31    1
    10    32    31    1
    11    32    33    1
    12    33    34    1
    13    34    35    1
    14    34    42    1
    15    42    43    1
    16    34    36    1
    17    36    37    1
    18    36    38    1
    19    38    39    1
    20    38    40    1
    21     7     8    1
    22     8     9    1
    23     8    10    1
    24    10    44    1
    25    45    44    1
    26    45    46    1
    27    46    47    1
    28    47    48    1
    29    47    49    1
    30    49    50    1
    31    50    54    1
    32    54    55    1
    33    54    56    1
    34    50    51    1
    35    51    52    1
    36    10    11    1
    37    11    12    1
    38    11    13    1
    39    11    14    1
    40    14    15    1
    41    15    16    1
    42    15    17    1
    43    17    18    2
    44    17    19    1
    45    19    20    1
    46    19    21    1
    47    21    22    1
    48    21    23    1
    49    23    24    1
    50    23    25    1
    51    23     1    1
    52    40    32    1
    53    51    45    1
    54    37    41    1
    55    52    53    1
    56    13    26    1
    57    22    27    1
    58    25    28    1
