@<TRIPOS>MOLECULE
*****
 19 20 0 0 0
SMALL
GASTEIGER

@<TRIPOS>ATOM
      1 C          66.4202   93.6049   11.1284 C.2     1  UNL1        0.1535
      2 N          65.3031   92.8161   10.5121 N.2     1  UNL1       -0.2470
      3 C          64.6693   91.9891   11.5912 C.3     1  UNL1        0.1720
      4 C          63.5253   91.0191   11.5712 C.3     1  UNL1        0.1653
      5 O          62.7999   90.7414   10.2880 O.3     1  UNL1       -0.3798
      6 C          63.1068   90.3268   12.8343 C.3     1  UNL1        0.1691
      7 O          61.9629   89.3567   12.8143 O.3     1  UNL1       -0.3794
      8 C          63.8322   90.6045   14.1175 C.3     1  UNL1        0.1807
      9 O          64.9762   91.5746   14.1376 O.3     1  UNL1       -0.3399
     10 C          65.3947   92.2669   12.8744 C.3     1  UNL1        0.1938
     11 S          66.4768   93.2655   12.5883 S.3     1  UNL1       -0.0497
     12 H          62.0936   90.0963   10.4489 H       1  UNL1        0.2105
     13 H          61.6083   89.2936   11.9136 H       1  UNL1        0.2105
     14 N          67.3223   94.5647   10.4106 N.pl3   1  UNL1       -0.3135
     15 H          67.4368   95.4812   10.7514 H       1  UNL1        0.1487
     16 C          68.5993   92.7356    9.0789 C.3     1  UNL1        0.0230
     17 C          68.0498   94.1281    9.1737 C.3     1  UNL1        0.0887
     18 C          63.4137   89.9122   15.3807 C.3     1  UNL1        0.2251
     19 F          63.4963   90.6329   16.6936 F       1  UNL1       -0.2315
@<TRIPOS>BOND
     1    16    17    1
     2    17    14    1
     3    14     1    1
     4     1     2    2
     5     3     2    1
     6     3     4    1
     7     4     5    1
     8     4     6    1
     9     6     7    1
    10     6     8    1
    11     8    18    1
    12    18    19    1
    13     8     9    1
    14    10     9    1
    15    10    11    1
    16    11     1    1
    17    10     3    1
    18    14    15    1
    19     5    12    1
    20     7    13    1
@<TRIPOS>MOLECULE
*****
 19 20 0 0 0
SMALL
GASTEIGER

@<TRIPOS>ATOM
      1 C          66.2369   93.4653   10.6886 C.2     1  UNL1        0.1535
      2 N          66.8623   93.9408   11.9664 N.2     1  UNL1       -0.2470
      3 C          66.2088   93.2107   13.1022 C.3     1  UNL1        0.1720
      4 C          66.4180   93.2701   14.5863 C.3     1  UNL1        0.1653
      5 O          67.4474   94.1967   15.1621 O.3     1  UNL1       -0.3798
      6 C          65.5978   92.4027   15.4947 C.3     1  UNL1        0.1691
      7 O          65.8071   92.4620   16.9788 O.3     1  UNL1       -0.3794
      8 C          64.5684   91.4760   14.9188 C.3     1  UNL1        0.1807
      9 O          64.3592   91.4167   13.4346 O.3     1  UNL1       -0.3399
     10 C          65.1794   92.2841   12.5263 C.3     1  UNL1        0.1938
     11 S          65.1967   92.4414   11.0347 S.3     1  UNL1       -0.0497
     12 H          67.4543   94.1121   16.1284 H       1  UNL1        0.2105
     13 H          66.5032   93.1063   17.1816 H       1  UNL1        0.2105
     14 N          66.5896   93.9318    9.3074 N.pl3   1  UNL1       -0.3135
     15 H          65.9179   94.3976    8.7586 H       1  UNL1        0.1487
     16 C          68.6966   92.4250    9.1071 C.3     1  UNL1        0.0230
     17 C          67.9656   93.6887    8.7622 C.3     1  UNL1        0.0887
     18 C          63.7483   90.6087   15.8271 C.3     1  UNL1        0.2251
     19 F          63.7958   89.1163   15.6835 F       1  UNL1       -0.2315
@<TRIPOS>BOND
     1    16    17    1
     2    17    14    1
     3    14     1    1
     4     1     2    2
     5     3     2    1
     6     3     4    1
     7     4     5    1
     8     4     6    1
     9     6     7    1
    10     6     8    1
    11     8    18    1
    12    18    19    1
    13     8     9    1
    14    10     9    1
    15    10    11    1
    16    11     1    1
    17    10     3    1
    18    14    15    1
    19     5    12    1
    20     7    13    1
@<TRIPOS>MOLECULE
*****
 19 20 0 0 0
SMALL
GASTEIGER

@<TRIPOS>ATOM
      1 C          63.3876   85.3361   16.0795 C.2     1  UNL1        0.1535
      2 N          62.7614   83.9762   15.9879 N.2     1  UNL1       -0.2470
      3 C          63.0308   83.4332   14.6158 C.3     1  UNL1        0.1720
      4 C          62.6567   82.1384   13.9575 C.3     1  UNL1        0.1653
      5 O          61.8639   81.1140   14.7139 O.3     1  UNL1       -0.3798
      6 C          63.0754   81.8678   12.5427 C.3     1  UNL1        0.1691
      7 O          62.7013   80.5730   11.8844 O.3     1  UNL1       -0.3794
      8 C          63.8683   82.8921   11.7863 C.3     1  UNL1        0.1807
      9 O          64.2424   84.1870   12.4447 O.3     1  UNL1       -0.3399
     10 C          63.8237   84.4575   13.8594 C.3     1  UNL1        0.1938
     11 S          64.0442   85.6336   14.7640 S.3     1  UNL1       -0.0497
     12 H          61.7087   80.3422   14.1473 H       1  UNL1        0.2105
     13 H          62.1942   80.0285   12.5068 H       1  UNL1        0.2105
     14 N          63.3619   86.2399   17.2763 N.pl3   1  UNL1       -0.3135
     15 H          63.8844   86.0097   18.0784 H       1  UNL1        0.1487
     16 C          63.1507   88.7818   16.7822 C.3     1  UNL1        0.0230
     17 C          62.5401   87.4945   17.2513 C.3     1  UNL1        0.0887
     18 C          64.2870   82.6216   10.3716 C.3     1  UNL1        0.2251
     19 F          63.8154   83.5182    9.2654 F       1  UNL1       -0.2315
@<TRIPOS>BOND
     1    16    17    1
     2    17    14    1
     3    14     1    1
     4     1     2    2
     5     3     2    1
     6     3     4    1
     7     4     5    1
     8     4     6    1
     9     6     7    1
    10     6     8    1
    11     8    18    1
    12    18    19    1
    13     8     9    1
    14    10     9    1
    15    10    11    1
    16    11     1    1
    17    10     3    1
    18    14    15    1
    19     5    12    1
    20     7    13    1
@<TRIPOS>MOLECULE
*****
 19 20 0 0 0
SMALL
GASTEIGER

@<TRIPOS>ATOM
      1 C          62.6316   89.7602   12.1890 C.2     1  UNL1        0.1535
      2 N          63.2113   90.7309   11.2032 N.2     1  UNL1       -0.2470
      3 C          64.2318   91.5650   11.9193 C.3     1  UNL1        0.1720
      4 C          65.1212   92.6801   11.4552 C.3     1  UNL1        0.1653
      5 O          65.0702   93.1352   10.0268 O.3     1  UNL1       -0.3798
      6 C          66.0617   93.3402   12.4196 C.3     1  UNL1        0.1691
      7 O          66.9511   94.4554   11.9555 O.3     1  UNL1       -0.3794
      8 C          66.1126   92.8851   13.8479 C.3     1  UNL1        0.1807
      9 O          65.2232   91.7700   14.3120 O.3     1  UNL1       -0.3399
     10 C          64.2828   91.1099   13.3477 C.3     1  UNL1        0.1938
     11 S          63.2938   89.9945   13.5143 S.3     1  UNL1       -0.0497
     12 H          65.7034   93.8582    9.8950 H       1  UNL1        0.2105
     13 H          66.7938   94.6236   11.0132 H       1  UNL1        0.2105
     14 N          61.5751   88.7353   11.9001 N.pl3   1  UNL1       -0.3135
     15 H          61.6909   87.8081   12.2103 H       1  UNL1        0.1487
     16 C          59.5667   90.3432   11.5383 C.3     1  UNL1        0.0230
     17 C          60.3423   89.1230   11.1388 C.3     1  UNL1        0.0887
     18 C          67.0530   93.5452   14.8123 C.3     1  UNL1        0.2251
     19 F          67.0285   93.1650   16.2631 F       1  UNL1       -0.2315
@<TRIPOS>BOND
     1    16    17    1
     2    17    14    1
     3    14     1    1
     4     1     2    2
     5     3     2    1
     6     3     4    1
     7     4     5    1
     8     4     6    1
     9     6     7    1
    10     6     8    1
    11     8    18    1
    12    18    19    1
    13     8     9    1
    14    10     9    1
    15    10    11    1
    16    11     1    1
    17    10     3    1
    18    14    15    1
    19     5    12    1
    20     7    13    1
@<TRIPOS>MOLECULE
*****
 19 20 0 0 0
SMALL
GASTEIGER

@<TRIPOS>ATOM
      1 C          62.2604   87.0074   11.0789 C.2     1  UNL1        0.1535
      2 N          63.0227   87.0447   12.3702 N.2     1  UNL1       -0.2470
      3 C          63.1851   85.6341   12.8536 C.3     1  UNL1        0.1720
      4 C          63.8501   85.0600   14.0693 C.3     1  UNL1        0.1653
      5 O          64.5120   85.9691   15.0619 O.3     1  UNL1       -0.3798
      6 C          63.8533   83.5766   14.2925 C.3     1  UNL1        0.1691
      7 O          64.5184   83.0025   15.5082 O.3     1  UNL1       -0.3794
      8 C          63.1914   82.6674   13.2998 C.3     1  UNL1        0.1807
      9 O          62.5263   83.2416   12.0840 O.3     1  UNL1       -0.3399
     10 C          62.5232   84.7249   11.8609 C.3     1  UNL1        0.1938
     11 S          61.9517   85.5737   10.7641 S.3     1  UNL1       -0.0497
     12 H          64.8899   85.4409   15.7824 H       1  UNL1        0.2105
     13 H          64.8936   83.7209   16.0411 H       1  UNL1        0.2105
     14 N          61.8746   88.1953   10.2481 N.pl3   1  UNL1       -0.3135
     15 H          61.6111   88.0734    9.3074 H       1  UNL1        0.1487
     16 C          62.7802   90.6303   10.2750 C.3     1  UNL1        0.0230
     17 C          61.8903   89.5689   10.8507 C.3     1  UNL1        0.0887
     18 C          63.1946   81.1841   13.5229 C.3     1  UNL1        0.2251
     19 F          62.8115   80.2571   12.4077 F       1  UNL1       -0.2315
@<TRIPOS>BOND
     1    16    17    1
     2    17    14    1
     3    14     1    1
     4     1     2    2
     5     3     2    1
     6     3     4    1
     7     4     5    1
     8     4     6    1
     9     6     7    1
    10     6     8    1
    11     8    18    1
    12    18    19    1
    13     8     9    1
    14    10     9    1
    15    10    11    1
    16    11     1    1
    17    10     3    1
    18    14    15    1
    19     5    12    1
    20     7    13    1
@<TRIPOS>MOLECULE
*****
 19 20 0 0 0
SMALL
GASTEIGER

@<TRIPOS>ATOM
      1 C          62.4018   89.7241   12.4399 C.2     1  UNL1        0.1535
      2 N          62.4604   89.8502   13.9334 N.2     1  UNL1       -0.2470
      3 C          63.5876   90.7785   14.2764 C.3     1  UNL1        0.1720
      4 C          64.1155   91.2739   15.5901 C.3     1  UNL1        0.1653
      5 O          63.4774   90.8262   16.8717 O.3     1  UNL1       -0.3798
      6 C          65.2815   92.2171   15.6223 C.3     1  UNL1        0.1691
      7 O          65.8093   92.7126   16.9360 O.3     1  UNL1       -0.3794
      8 C          65.9195   92.6648   14.3407 C.3     1  UNL1        0.1807
      9 O          65.3916   92.1693   13.0270 O.3     1  UNL1       -0.3399
     10 C          64.2257   91.2261   12.9949 C.3     1  UNL1        0.1938
     11 S          63.4928   90.5745   11.8598 S.3     1  UNL1       -0.0497
     12 H          63.9361   91.2361   17.6217 H       1  UNL1        0.2105
     13 H          65.2881   92.3298   17.6590 H       1  UNL1        0.2105
     14 N          61.4239   88.8935   11.6629 N.pl3   1  UNL1       -0.3135
     15 H          61.6877   88.0054   11.3300 H       1  UNL1        0.1487
     16 C          58.9617   89.2394   12.4164 C.3     1  UNL1        0.0230
     17 C          60.0440   89.4161   11.3931 C.3     1  UNL1        0.0887
     18 C          67.0854   93.6079   14.3728 C.3     1  UNL1        0.2251
     19 F          68.3201   93.2482   15.1450 F       1  UNL1       -0.2315
@<TRIPOS>BOND
     1    16    17    1
     2    17    14    1
     3    14     1    1
     4     1     2    2
     5     3     2    1
     6     3     4    1
     7     4     5    1
     8     4     6    1
     9     6     7    1
    10     6     8    1
    11     8    18    1
    12    18    19    1
    13     8     9    1
    14    10     9    1
    15    10    11    1
    16    11     1    1
    17    10     3    1
    18    14    15    1
    19     5    12    1
    20     7    13    1
@<TRIPOS>MOLECULE
*****
 19 20 0 0 0
SMALL
GASTEIGER

@<TRIPOS>ATOM
      1 C          61.7706   89.3292   11.6384 C.2     1  UNL1        0.1535
      2 N          62.4975   89.7656   12.8758 N.2     1  UNL1       -0.2470
      3 C          63.5075   90.8012   12.4791 C.3     1  UNL1        0.1720
      4 C          64.5075   91.5851   13.2764 C.3     1  UNL1        0.1653
      5 O          64.6102   91.3813   14.7589 O.3     1  UNL1       -0.3798
      6 C          65.4048   92.5727   12.5911 C.3     1  UNL1        0.1691
      7 O          66.4047   93.3565   13.3884 O.3     1  UNL1       -0.3794
      8 C          65.3020   92.7764   11.1086 C.3     1  UNL1        0.1807
      9 O          64.3020   91.9925   10.3113 O.3     1  UNL1       -0.3399
     10 C          63.4048   91.0050   10.9966 C.3     1  UNL1        0.1938
     11 S          62.3313   90.0952   10.4770 S.3     1  UNL1       -0.0497
     12 H          65.3002   91.9609   15.1179 H       1  UNL1        0.2105
     13 H          66.3406   93.1061   14.3233 H       1  UNL1        0.2105
     14 N          60.6752   88.3065   11.5737 N.pl3   1  UNL1       -0.3135
     15 H          59.8448   88.4415   12.0851 H       1  UNL1        0.1487
     16 C          61.6825   85.9369   11.2266 C.3     1  UNL1        0.0230
     17 C          60.8450   87.0780   10.7300 C.3     1  UNL1        0.0887
     18 C          66.1992   93.7640   10.4233 C.3     1  UNL1        0.2251
     19 F          66.1637   95.2103   10.8194 F       1  UNL1       -0.2315
@<TRIPOS>BOND
     1    16    17    1
     2    17    14    1
     3    14     1    1
     4     1     2    2
     5     3     2    1
     6     3     4    1
     7     4     5    1
     8     4     6    1
     9     6     7    1
    10     6     8    1
    11     8    18    1
    12    18    19    1
    13     8     9    1
    14    10     9    1
    15    10    11    1
    16    11     1    1
    17    10     3    1
    18    14    15    1
    19     5    12    1
    20     7    13    1
@<TRIPOS>MOLECULE
*****
 19 20 0 0 0
SMALL
GASTEIGER

@<TRIPOS>ATOM
      1 C          61.8022   86.4192    9.6647 C.2     1  UNL1        0.1535
      2 N          62.7497   85.2802    9.4301 N.2     1  UNL1       -0.2470
      3 C          63.0280   84.6289   10.7523 C.3     1  UNL1        0.1720
      4 C          63.8874   83.4603   11.1343 C.3     1  UNL1        0.1653
      5 O          64.6628   82.7239   10.0825 O.3     1  UNL1       -0.3798
      6 C          63.9714   83.0282   12.5683 C.3     1  UNL1        0.1691
      7 O          64.8307   81.8596   12.9504 O.3     1  UNL1       -0.3794
      8 C          63.1960   83.7646   13.6202 C.3     1  UNL1        0.1807
      9 O          62.3366   84.9332   13.2381 O.3     1  UNL1       -0.3399
     10 C          62.2527   85.3653   11.8042 C.3     1  UNL1        0.1938
     11 S          61.4951   86.4718   11.1320 S.3     1  UNL1       -0.0497
     12 H          65.1620   82.0017   10.4950 H       1  UNL1        0.2105
     13 H          65.2593   81.5006   12.1577 H       1  UNL1        0.2105
     14 N          61.2576   87.3434    8.6163 N.pl3   1  UNL1       -0.3135
     15 H          61.8653   87.7584    7.9622 H       1  UNL1        0.1487
     16 C          58.8790   86.7681    7.7438 C.3     1  UNL1        0.0230
     17 C          59.7872   87.6352    8.5643 C.3     1  UNL1        0.0887
     18 C          63.2799   83.3325   15.0541 C.3     1  UNL1        0.2251
     19 F          62.3730   83.9490   16.0776 F       1  UNL1       -0.2315
@<TRIPOS>BOND
     1    16    17    1
     2    17    14    1
     3    14     1    1
     4     1     2    2
     5     3     2    1
     6     3     4    1
     7     4     5    1
     8     4     6    1
     9     6     7    1
    10     6     8    1
    11     8    18    1
    12    18    19    1
    13     8     9    1
    14    10     9    1
    15    10    11    1
    16    11     1    1
    17    10     3    1
    18    14    15    1
    19     5    12    1
    20     7    13    1
@<TRIPOS>MOLECULE
*****
 19 20 0 0 0
SMALL
GASTEIGER

@<TRIPOS>ATOM
      1 C          62.9406   85.2942   11.9608 C.2     1  UNL1        0.1535
      2 N          62.7872   86.7498   12.2890 N.2     1  UNL1       -0.2470
      3 C          61.9335   87.3770   11.2270 C.3     1  UNL1        0.1720
      4 C          61.4486   88.7826   11.0293 C.3     1  UNL1        0.1653
      5 O          61.8229   89.8505   12.0138 O.3     1  UNL1       -0.3798
      6 C          60.5894   89.1203    9.8469 C.3     1  UNL1        0.1691
      7 O          60.1045   90.5259    9.6492 O.3     1  UNL1       -0.3794
      8 C          60.2152   88.0523    8.8624 C.3     1  UNL1        0.1807
      9 O          60.7001   86.6466    9.0601 O.3     1  UNL1       -0.3399
     10 C          61.5593   86.3090   10.2424 C.3     1  UNL1        0.1938
     11 S          62.1817   85.0218   10.6959 S.3     1  UNL1       -0.0497
     12 H          61.4304   90.6944   11.7403 H       1  UNL1        0.2105
     13 H          60.4342   91.0859   10.3694 H       1  UNL1        0.2105
     14 N          63.7166   84.2877   12.7575 N.pl3   1  UNL1       -0.3135
     15 H          63.9512   84.4769   13.6948 H       1  UNL1        0.1487
     16 C          63.2829   81.7694   12.2883 C.3     1  UNL1        0.0230
     17 C          64.1353   82.9930   12.1263 C.3     1  UNL1        0.0887
     18 C          59.3560   88.3899    7.6801 C.3     1  UNL1        0.2251
     19 F          59.8086   89.4276    6.6960 F       1  UNL1       -0.2315
@<TRIPOS>BOND
     1    16    17    1
     2    17    14    1
     3    14     1    1
     4     1     2    2
     5     3     2    1
     6     3     4    1
     7     4     5    1
     8     4     6    1
     9     6     7    1
    10     6     8    1
    11     8    18    1
    12    18    19    1
    13     8     9    1
    14    10     9    1
    15    10    11    1
    16    11     1    1
    17    10     3    1
    18    14    15    1
    19     5    12    1
    20     7    13    1
